Network_03R-200/scenario_65/case.raw
0,100.0,33,0,1,60.0
GRID OPTIMIZATION COMPETITION
INPUT DATA FILES ARE RAW ROP INL CON
1,'A1',115.0,1,1,1,1,1.00726,-8.3736,1.06,0.93,1.1,0.9
2,'A2',115.0,1,1,1,1,1.01214,-9.5881,1.06,0.93,1.1,0.9
3,'A3',35.0,1,1,1,1,1.00422,-9.1353,1.06,0.93,1.1,0.9
4,'A4',115.0,1,1,1,1,1.01393,-7.3788,1.06,0.93,1.1,0.9
5,'A5',13.0,1,1,1,1,1.01205,-9.9664,1.06,0.93,1.1,0.9
6,'A6',14.0,2,1,1,1,1.0002,-7.5926,1.06,0.93,1.1,0.9
7,'A7',115.0,1,1,1,1,1.00615,-8.9234,1.06,0.93,1.1,0.9
8,'A8',13.0,1,1,1,1,1.0125,-9.5434,1.06,0.93,1.1,0.9
9,'A9',35.0,1,1,1,1,1.00493,-8.8924,1.06,0.93,1.1,0.9
10,'A10',115.0,1,1,1,1,1.01154,-9.926,1.06,0.93,1.1,0.9
11,'A11',115.0,1,1,1,1,1.00949,-10.2848,1.06,0.93,1.1,0.9
12,'A12',35.0,1,1,1,1,1.01269,-8.6036,1.06,0.93,1.1,0.9
13,'A13',13.0,1,1,1,1,1.01714,-9.167,1.06,0.93,1.1,0.9
15,'A15',35.0,1,1,1,1,1.01344,-9.189,1.06,0.93,1.1,0.9
16,'A16',115.0,1,1,1,1,1.0162,-7.2345,1.06,0.93,1.1,0.9
17,'A17',115.0,1,1,1,1,1.0167,-7.3442,1.06,0.93,1.1,0.9
18,'A18',230.0,1,1,1,1,1.01006,-6.294,1.06,0.93,1.1,0.9
19,'A19',230.0,1,1,1,1,1.01018,-6.2535,1.06,0.93,1.1,0.9
20,'A20',13.0,1,1,1,1,1.01395,-7.4289,1.06,0.93,1.1,0.9
21,'A21',115.0,1,1,1,1,1.00856,-12.1796,1.06,0.93,1.1,0.9
22,'A22',115.0,1,1,1,1,1.00669,-8.4359,1.06,0.93,1.1,0.9
23,'A23',115.0,2,1,1,1,1.01,-5.5687,1.06,0.93,1.1,0.9
24,'A24',115.0,1,1,1,1,0.99845,-9.5846,1.06,0.93,1.1,0.9
25,'A25',14.0,2,1,1,1,1.0002,-7.5926,1.06,0.93,1.1,0.9
27,'A27',115.0,1,1,1,1,1.01136,-9.9152,1.06,0.93,1.1,0.9
28,'A28',35.0,1,1,1,1,0.99876,-9.2732,1.06,0.93,1.1,0.9
30,'A30',115.0,1,1,1,1,1.00117,-9.4317,1.06,0.93,1.1,0.9
31,'A31',230.0,2,1,1,1,1.0099,-6.2929,1.06,0.93,1.1,0.9
32,'A32',115.0,1,1,1,1,1.01187,-9.7023,1.06,0.93,1.1,0.9
33,'A33',230.0,2,1,1,1,1.00912,-6.5007,1.06,0.93,1.1,0.9
34,'A34',35.0,1,1,1,1,1.00821,-7.725,1.06,0.93,1.1,0.9
35,'A35',230.0,2,1,1,1,1.01018,-6.2535,1.06,0.93,1.1,0.9
36,'A36',230.0,1,1,1,1,1.00912,-6.5007,1.06,0.93,1.1,0.9
37,'A37',230.0,1,1,1,1,1.0117,-8.3652,1.06,0.93,1.1,0.9
38,'A38',230.0,1,1,1,1,1.0092,-6.3803,1.06,0.93,1.1,0.9
39,'A39',35.0,1,1,1,1,0.99301,-5.8439,1.06,0.93,1.1,0.9
40,'A40',115.0,1,1,1,1,1.01458,-6.6833,1.06,0.93,1.1,0.9
41,'A41',230.0,1,1,1,1,1.00547,-8.9974,1.06,0.93,1.1,0.9
43,'A43',115.0,2,1,1,1,1.0131,-7.3596,1.06,0.93,1.1,0.9
44,'A44',115.0,1,1,1,1,1.00986,-5.8839,1.06,0.93,1.1,0.9
45,'A45',230.0,2,1,1,1,1.00912,-6.5007,1.06,0.93,1.1,0.9
46,'A46',230.0,2,1,1,1,1.0048,-8.6335,1.06,0.93,1.1,0.9
47,'A47',115.0,2,1,1,1,1.0131,-6.231,1.06,0.93,1.1,0.9
49,'A49',35.0,1,1,1,1,1.00821,-7.725,1.06,0.93,1.1,0.9
50,'A50',115.0,1,1,1,1,1.01255,-9.5584,1.06,0.93,1.1,0.9
51,'A51',13.0,1,1,1,1,0.9979,-9.6161,1.06,0.93,1.1,0.9
52,'A52',230.0,2,1,1,1,1.0051,-8.9753,1.06,0.93,1.1,0.9
53,'A53',115.0,1,1,1,1,1.01663,-10.3645,1.06,0.93,1.1,0.9
54,'A54',35.0,1,1,1,1,1.00074,-10.34,1.06,0.93,1.1,0.9
55,'A55',230.0,2,1,1,1,1.0108,-7.5926,1.06,0.93,1.1,0.9
56,'A56',35.0,1,1,1,1,1.0135,-8.5287,1.06,0.93,1.1,0.9
57,'A57',115.0,1,1,1,1,1.00067,-12.8297,1.06,0.93,1.1,0.9
58,'A58',115.0,1,1,1,1,1.02216,-9.7924,1.06,0.93,1.1,0.9
59,'A59',35.0,2,1,1,1,1.01617,-5.7036,1.06,0.93,1.1,0.9
60,'A60',115.0,1,1,1,1,1.00546,-8.8379,1.06,0.93,1.1,0.9
61,'A61',13.0,1,1,1,1,1.01131,-9.9293,1.06,0.93,1.1,0.9
62,'A62',115.0,1,1,1,1,1.01732,-10.3025,1.06,0.93,1.1,0.9
63,'A63',230.0,1,1,1,1,1.00772,-8.6799,1.06,0.93,1.1,0.9
64,'A64',35.0,1,1,1,1,1.00932,-5.5894,1.06,0.93,1.1,0.9
65,'A65',14.0,2,1,1,1,1.0166,-7.1396,1.06,0.93,1.1,0.9
66,'A66',230.0,1,1,1,1,1.01006,-6.294,1.06,0.93,1.1,0.9
67,'A67',115.0,1,1,1,1,1.01106,-7.6693,1.06,0.93,1.1,0.9
68,'A68',115.0,1,1,1,1,1.0129,-11.3188,1.06,0.93,1.1,0.9
69,'A69',230.0,1,1,1,1,1.01022,-6.2466,1.06,0.93,1.1,0.9
70,'A70',35.0,1,1,1,1,1.0007,-6.8369,1.06,0.93,1.1,0.9
71,'A71',115.0,2,1,1,1,1.0159,-5.842,1.06,0.93,1.1,0.9
72,'A72',115.0,1,1,1,1,1.01135,-9.8723,1.06,0.93,1.1,0.9
73,'A73',115.0,1,1,1,1,1.00671,-8.9196,1.06,0.93,1.1,0.9
74,'A74',115.0,1,1,1,1,1.0126,-9.5297,1.06,0.93,1.1,0.9
75,'A75',13.0,1,1,1,1,1.01439,-7.4826,1.06,0.93,1.1,0.9
76,'A76',115.0,1,1,1,1,1.01808,-10.2273,1.06,0.93,1.1,0.9
77,'A77',35.0,1,1,1,1,0.98905,-9.2748,1.06,0.93,1.1,0.9
78,'A78',35.0,1,1,1,1,1.00074,-9.4801,1.06,0.93,1.1,0.9
79,'A79',230.0,1,1,1,1,1.01169,-8.4863,1.06,0.93,1.1,0.9
80,'A80',14.0,2,1,1,1,1.01609,-7.2386,1.06,0.93,1.1,0.9
81,'A81',115.0,1,1,1,1,1.01738,-9.1398,1.06,0.93,1.1,0.9
82,'A82',115.0,1,1,1,1,1.01661,-10.3669,1.06,0.93,1.1,0.9
83,'A83',115.0,1,1,1,1,1.01395,-11.1947,1.06,0.93,1.1,0.9
84,'A84',115.0,1,1,1,1,1.01254,-11.356,1.06,0.93,1.1,0.9
85,'A85',115.0,1,1,1,1,1.00063,-12.8345,1.06,0.93,1.1,0.9
86,'A86',230.0,2,1,1,1,1.0107,-5.6625,1.06,0.93,1.1,0.9
87,'A87',230.0,2,1,1,1,1.00557,-8.9988,1.06,0.93,1.1,0.9
88,'A88',35.0,1,1,1,1,1.00687,-7.1509,1.06,0.93,1.1,0.9
89,'A89',35.0,1,1,1,1,0.99952,-6.5376,1.06,0.93,1.1,0.9
90,'A90',230.0,2,1,1,1,1.0078,-8.6227,1.06,0.93,1.1,0.9
91,'A91',115.0,1,1,1,1,1.01432,-11.1319,1.06,0.93,1.1,0.9
92,'A92',115.0,1,1,1,1,1.01033,-10.2624,1.06,0.93,1.1,0.9
93,'A93',115.0,2,1,1,1,1.0161,-7.308,1.06,0.93,1.1,0.9
94,'A94',115.0,1,1,1,1,0.99897,-9.5523,1.06,0.93,1.1,0.9
95,'B95',345.0,1,1,2,1,1.00027,-12.3358,1.06,0.93,1.1,0.9
96,'B96',345.0,1,1,2,1,1.00023,-12.3388,1.06,0.93,1.1,0.9
97,'B97',345.0,1,1,2,1,1.0012,-12.3174,1.06,0.93,1.1,0.9
98,'B98',345.0,2,1,2,1,1.00124,-12.3187,1.06,0.93,1.1,0.9
99,'B99',345.0,2,1,2,1,1.00293,-12.0519,1.06,0.93,1.1,0.9
100,'B100',345.0,2,1,2,1,1.00292,-12.0613,1.06,0.93,1.1,0.9
101,'B101',345.0,1,1,2,1,1.01246,-13.1693,1.06,0.93,1.1,0.9
102,'B102',345.0,1,1,2,1,1.01412,-13.0355,1.06,0.93,1.1,0.9
103,'B103',138.0,1,1,2,1,1.02136,-10.1568,1.06,0.93,1.1,0.9
104,'B104',138.0,1,1,2,1,1.00873,5.4721,1.06,0.93,1.1,0.9
105,'B105',138.0,2,1,2,1,1.00847,5.3623,1.06,0.93,1.1,0.9
106,'B106',138.0,1,1,2,1,1.02198,-5.6599,1.06,0.93,1.1,0.9
107,'B107',138.0,1,1,2,1,1.022,-5.6632,1.06,0.93,1.1,0.9
108,'B108',138.0,1,1,2,1,1.02309,7.5612,1.06,0.93,1.1,0.9
109,'B109',138.0,1,1,2,1,1.01238,-11.2224,1.06,0.93,1.1,0.9
110,'B110',138.0,1,1,2,1,1.02204,-5.6353,1.06,0.93,1.1,0.9
111,'B111',138.0,1,1,2,1,1.02205,-5.638,1.06,0.93,1.1,0.9
112,'B112',138.0,1,1,2,1,1.02792,-6.6596,1.06,0.93,1.1,0.9
113,'B113',138.0,1,1,2,1,1.02792,-6.6596,1.06,0.93,1.1,0.9
114,'B114',138.0,1,1,2,1,1.028,-6.6533,1.06,0.93,1.1,0.9
115,'B115',138.0,1,1,2,1,1.01275,-11.4883,1.06,0.93,1.1,0.9
116,'B116',138.0,2,1,2,1,1.0188,-10.3196,1.06,0.93,1.1,0.9
117,'B117',138.0,2,1,2,1,1.0189,-10.3406,1.06,0.93,1.1,0.9
118,'B118',138.0,1,1,2,1,1.01731,-10.5773,1.06,0.93,1.1,0.9
119,'B119',138.0,1,1,2,1,1.01741,-10.5701,1.06,0.93,1.1,0.9
120,'B120',138.0,1,1,2,1,1.01217,-11.3345,1.06,0.93,1.1,0.9
121,'B121',138.0,2,1,2,1,1.01438,-10.9423,1.06,0.93,1.1,0.9
122,'B122',138.0,1,1,2,1,1.0144,-10.9398,1.06,0.93,1.1,0.9
123,'B123',138.0,1,1,2,1,1.0144,-10.9398,1.06,0.93,1.1,0.9
124,'B124',138.0,1,1,2,1,1.01438,-10.9423,1.06,0.93,1.1,0.9
125,'B125',138.0,1,1,2,1,1.01242,-11.2191,1.06,0.93,1.1,0.9
126,'B126',138.0,1,1,2,1,1.01276,-11.4884,1.06,0.93,1.1,0.9
127,'B127',138.0,1,1,2,1,1.02024,-5.2848,1.06,0.93,1.1,0.9
128,'B128',138.0,1,1,2,1,1.02006,-5.2685,1.06,0.93,1.1,0.9
129,'B129',138.0,1,1,2,1,1.00846,-3.5349,1.06,0.93,1.1,0.9
130,'B130',138.0,1,1,2,1,1.00858,-3.533,1.06,0.93,1.1,0.9
131,'B131',138.0,2,1,2,1,1.0278,-6.6706,1.06,0.93,1.1,0.9
132,'B132',138.0,1,1,2,1,1.01869,-10.3277,1.06,0.93,1.1,0.9
133,'B133',138.0,2,1,2,1,1.01713,-11.7044,1.06,0.93,1.1,0.9
134,'B134',138.0,2,1,2,1,0.99989,-13.4621,1.06,0.93,1.1,0.9
135,'B135',138.0,1,1,2,1,1.01212,-11.2424,1.06,0.93,1.1,0.9
136,'B136',138.0,1,1,2,1,1.01436,-10.9445,1.06,0.93,1.1,0.9
137,'B137',138.0,1,1,2,1,1.00654,-5.1859,1.06,0.93,1.1,0.9
138,'B138',138.0,1,1,2,1,1.00374,0.9673,1.06,0.93,1.1,0.9
139,'B139',138.0,1,1,2,1,1.00374,0.9673,1.06,0.93,1.1,0.9
140,'B140',138.0,1,1,2,1,1.02227,-5.5845,1.06,0.93,1.1,0.9
141,'B141',138.0,1,1,2,1,1.02267,-5.4811,1.06,0.93,1.1,0.9
142,'B142',138.0,1,1,2,1,1.01976,-11.0131,1.06,0.93,1.1,0.9
143,'B143',138.0,1,1,2,1,1.01988,-11.0261,1.06,0.93,1.1,0.9
144,'B144',138.0,1,1,2,1,1.01242,-11.2191,1.06,0.93,1.1,0.9
145,'B145',138.0,1,1,2,1,1.01965,-10.3746,1.06,0.93,1.1,0.9
146,'B146',138.0,1,1,2,1,1.02017,-6.0928,1.06,0.93,1.1,0.9
147,'B147',138.0,1,1,2,1,1.02016,-6.1033,1.06,0.93,1.1,0.9
148,'B148',138.0,1,1,2,1,1.01657,-11.9241,1.06,0.93,1.1,0.9
149,'B149',138.0,1,1,2,1,1.0169,-11.9083,1.06,0.93,1.1,0.9
150,'B150',138.0,1,1,2,1,1.01269,-11.4916,1.06,0.93,1.1,0.9
151,'B151',138.0,2,1,2,1,1.01087,-2.6568,1.06,0.93,1.1,0.9
152,'B152',138.0,2,1,2,1,1.02124,-10.1549,1.06,0.93,1.1,0.9
153,'B153',138.0,1,1,2,1,1.01888,-10.6497,1.06,0.93,1.1,0.9
154,'B154',138.0,1,1,2,1,1.01897,-10.6652,1.06,0.93,1.1,0.9
155,'B155',138.0,1,1,2,1,1.0223,-5.6928,1.06,0.93,1.1,0.9
156,'B156',138.0,2,1,2,1,1.02236,-5.6807,1.06,0.93,1.1,0.9
157,'B157',138.0,1,1,2,1,1.02594,-5.7805,1.06,0.93,1.1,0.9
158,'B158',138.0,1,1,2,1,1.02602,-5.7757,1.06,0.93,1.1,0.9
159,'B159',138.0,2,1,2,1,1.0193,-5.7269,1.06,0.93,1.1,0.9
160,'B160',138.0,1,1,2,1,1.01931,-5.7281,1.06,0.93,1.1,0.9
161,'B161',138.0,1,1,2,1,1.01559,-10.7729,1.06,0.93,1.1,0.9
162,'B162',138.0,1,1,2,1,1.0155,-10.7908,1.06,0.93,1.1,0.9
163,'B163',138.0,1,1,2,1,1.02087,-5.6555,1.06,0.93,1.1,0.9
164,'B164',138.0,1,1,2,1,1.02087,-5.6519,1.06,0.93,1.1,0.9
165,'B165',138.0,1,1,2,1,1.02225,-5.6969,1.06,0.93,1.1,0.9
166,'B166',138.0,1,1,2,1,1.02232,-5.684,1.06,0.93,1.1,0.9
167,'B167',138.0,1,1,2,1,1.0179,-10.7827,1.06,0.93,1.1,0.9
168,'B168',138.0,1,1,2,1,1.01784,-10.7632,1.06,0.93,1.1,0.9
169,'B169',138.0,1,1,2,1,1.01855,6.9594,1.06,0.93,1.1,0.9
170,'B170',138.0,1,1,2,1,1.01863,6.9651,1.06,0.93,1.1,0.9
171,'B171',138.0,1,1,2,1,1.02072,-5.6802,1.06,0.93,1.1,0.9
172,'B172',138.0,1,1,2,1,1.02075,-5.6799,1.06,0.93,1.1,0.9
173,'B173',138.0,1,1,2,1,1.00685,-4.2188,1.06,0.93,1.1,0.9
174,'B174',138.0,1,1,2,1,1.00741,-4.1782,1.06,0.93,1.1,0.9
175,'B175',138.0,1,1,2,1,1.01441,-11.7279,1.06,0.93,1.1,0.9
176,'B176',138.0,1,1,2,1,1.01452,-11.7354,1.06,0.93,1.1,0.9
177,'B177',138.0,1,1,2,1,1.01256,-11.4427,1.06,0.93,1.1,0.9
178,'B178',138.0,1,1,2,1,1.01256,-11.4427,1.06,0.93,1.1,0.9
179,'B179',138.0,2,1,2,1,1.00189,2.3228,1.06,0.93,1.1,0.9
180,'B180',138.0,1,1,2,1,1.00168,2.4365,1.06,0.93,1.1,0.9
181,'B181',138.0,1,1,2,1,1.01605,-4.5581,1.06,0.93,1.1,0.9
182,'B182',138.0,1,1,2,1,1.01621,-4.5761,1.06,0.93,1.1,0.9
183,'B183',138.0,1,1,2,1,1.01301,-3.6135,1.06,0.93,1.1,0.9
184,'B184',138.0,1,1,2,1,1.01929,-10.2876,1.06,0.93,1.1,0.9
185,'B185',138.0,1,1,2,1,1.01928,-10.3051,1.06,0.93,1.1,0.9
186,'B186',138.0,1,1,2,1,1.01948,-10.2783,1.06,0.93,1.1,0.9
187,'B187',138.0,1,1,2,1,1.01951,-10.2944,1.06,0.93,1.1,0.9
188,'B188',138.0,1,1,2,1,1.01175,-3.0835,1.06,0.93,1.1,0.9
189,'B189',138.0,1,1,2,1,1.0116,-3.0636,1.06,0.93,1.1,0.9
190,'B190',138.0,2,1,2,1,1.033,-6.224,1.06,0.93,1.1,0.9
191,'B191',138.0,1,1,2,1,1.01241,-11.272,1.06,0.93,1.1,0.9
192,'B192',138.0,1,1,2,1,1.01244,-11.2699,1.06,0.93,1.1,0.9
193,'B193',138.0,1,1,2,1,1.01222,-11.2349,1.06,0.93,1.1,0.9
194,'B194',138.0,1,1,2,1,1.02166,-9.0369,1.06,0.93,1.1,0.9
195,'B195',138.0,1,1,2,1,1.02177,-9.028,1.06,0.93,1.1,0.9
196,'B196',138.0,1,1,2,1,1.03301,-6.2241,1.06,0.93,1.1,0.9
197,'B197',138.0,1,1,2,1,1.0144,-10.9398,1.06,0.93,1.1,0.9
198,'B198',138.0,1,1,2,1,1.01224,-11.3751,1.06,0.93,1.1,0.9
199,'B199',138.0,1,1,2,1,1.01225,-11.3749,1.06,0.93,1.1,0.9
200,'B200',138.0,1,1,2,1,1.02211,-5.6927,1.06,0.93,1.1,0.9
201,'B201',138.0,1,1,2,1,1.02214,-5.6938,1.06,0.93,1.1,0.9
202,'B202',138.0,1,1,2,1,1.02204,-5.6763,1.06,0.93,1.1,0.9
203,'B203',138.0,1,1,2,1,1.02202,-5.673,1.06,0.93,1.1,0.9
204,'B204',138.0,1,1,2,1,1.02208,-5.6653,1.06,0.93,1.1,0.9
205,'B205',138.0,1,1,2,1,1.02204,-5.6595,1.06,0.93,1.1,0.9
...
0 / END OF BUS DATA BEGIN LOAD DATA
1,'1',1,1,11,9.912,4.172,0.0,0.0,0.0,0.0,1,1,0
2,'1',1,1,11,5.714,1.27,0.0,0.0,0.0,0.0,1,1,0
2,'2',1,1,11,0.071,0.329,0.0,0.0,0.0,0.0,1,1,0
2,'99',0,1,11,16.545,15.406,0.0,0.0,0.0,0.0,1,1,0
3,'1',1,1,11,5.688,1.612,0.0,0.0,0.0,0.0,1,1,0
5,'1',1,1,11,0.316,-0.819,0.0,0.0,0.0,0.0,1,1,0
7,'1',1,1,11,4.385,2.509,0.0,0.0,0.0,0.0,1,1,0
8,'1',1,1,11,1.367,0.232,0.0,0.0,0.0,0.0,1,1,0
9,'1',1,1,11,8.448,1.657,0.0,0.0,0.0,0.0,1,1,0
12,'1',1,1,11,6.281,4.127,0.0,0.0,0.0,0.0,1,1,0
13,'1',1,1,11,5.211,1.432,0.0,0.0,0.0,0.0,1,1,0
15,'1',1,1,11,8.377,2.16,0.0,0.0,0.0,0.0,1,1,0
20,'1',1,1,11,8.196,-2.605,0.0,0.0,0.0,0.0,1,1,0
21,'1',1,1,11,5.088,-0.684,0.0,0.0,0.0,0.0,1,1,0
28,'1',1,1,11,15.612,1.857,0.0,0.0,0.0,0.0,1,1,0
32,'1',1,1,11,4.495,0.754,0.0,0.0,0.0,0.0,1,1,0
34,'1',1,1,11,6.294,5.172,0.0,0.0,0.0,0.0,1,1,0
36,'99',0,1,11,108.412,-4.52,0.0,0.0,0.0,0.0,1,1,0
37,'1',1,1,11,-5.256,-2.089,0.0,0.0,0.0,0.0,1,1,0
39,'1',1,1,11,11.182,4.501,0.0,0.0,0.0,0.0,1,1,0
43,'1',1,1,11,1.29,0.29,0.0,0.0,0.0,0.0,1,1,0
44,'1',1,1,11,5.688,1.444,0.0,0.0,0.0,0.0,1,1,0
47,'1',1,1,11,6.778,-0.961,0.0,0.0,0.0,0.0,1,1,0
49,'1',1,1,11,6.294,5.172,0.0,0.0,0.0,0.0,1,1,0
51,'1',1,1,11,3.224,1.935,0.0,0.0,0.0,0.0,1,1,0
53,'1',1,1,11,4.501,0.348,0.0,0.0,0.0,0.0,1,1,0
54,'1',1,1,11,9.202,-0.696,0.0,0.0,0.0,0.0,1,1,0
56,'1',1,1,11,4.037,3.734,0.0,0.0,0.0,0.0,1,1,0
57,'1',1,1,11,4.624,-0.174,0.0,0.0,0.0,0.0,1,1,0
58,'99',0,1,11,10.106,10.951,0.0,0.0,0.0,0.0,1,1,0
59,'1',1,1,11,5.746,3.392,0.0,0.0,0.0,0.0,1,1,0
61,'1',1,1,11,2.418,-0.297,0.0,0.0,0.0,0.0,1,1,0
62,'1',1,1,11,5.024,-0.174,0.0,0.0,0.0,0.0,1,1,0
63,'1',1,1,11,19.036,0.058,0.0,0.0,0.0,0.0,1,1,0
64,'1',1,1,11,5.462,4.843,0.0,0.0,0.0,0.0,1,1,0
65,'1',1,1,11,0.587,0.38,0.0,0.0,0.0,0.0,1,1,0
68,'1',1,1,11,4.533,-0.168,0.0,0.0,0.0,0.0,1,1,0
70,'1',1,1,11,3.573,-2.238,0.0,0.0,0.0,0.0,1,1,0
71,'1',1,1,11,3.624,-1.129,0.0,0.0,0.0,0.0,1,1,0
71,'2',1,1,11,3.624,-1.129,0.0,0.0,0.0,0.0,1,1,0
72,'1',1,1,11,3.45,0.226,0.0,0.0,0.0,0.0,1,1,0
74,'1',1,1,11,-0.213,0.226,0.0,0.0,0.0,0.0,1,1,0
74,'2',1,1,11,4.495,2.844,0.0,0.0,0.0,0.0,1,1,0
75,'1',1,1,11,1.922,-1.561,0.0,0.0,0.0,0.0,1,1,0
76,'1',1,1,11,3.444,-0.174,0.0,0.0,0.0,0.0,1,1,0
77,'1',1,1,11,15.109,0.271,0.0,0.0,0.0,0.0,1,1,0
78,'1',1,1,11,8.996,2.218,0.0,0.0,0.0,0.0,1,1,0
80,'1',1,1,11,0.58,0.348,0.0,0.0,0.0,0.0,1,1,0
81,'99',0,1,11,30.844,22.078,0.0,0.0,0.0,0.0,1,1,0
82,'1',1,1,11,4.501,0.348,0.0,0.0,0.0,0.0,1,1,0
84,'1',1,1,11,5.585,0.355,0.0,0.0,0.0,0.0,1,1,0
85,'1',1,1,11,8.815,2.47,0.0,0.0,0.0,0.0,1,1,0
88,'1',1,1,11,-0.168,0.006,0.0,0.0,0.0,0.0,1,1,0
89,'1',1,1,11,12.607,0.013,0.0,0.0,0.0,0.0,1,1,0
92,'1',1,1,11,2.921,-0.174,0.0,0.0,0.0,0.0,1,1,0
94,'1',1,1,11,1.399,1.619,0.0,0.0,0.0,0.0,1,1,0
96,'99',1,1,4,14.29,25.379,0.0,0.0,0.0,0.0,1,1,0
97,'99',1,1,4,12.143,16.319,0.0,0.0,0.0,0.0,1,1,0
99,'1',1,1,4,4.514,11.608,0.0,0.0,0.0,0.0,1,1,0
100,'1',1,1,4,5.159,13.542,0.0,0.0,0.0,0.0,1,1,0
101,'99',1,1,4,66.268,12.631,0.0,0.0,0.0,0.0,1,1,0
102,'99',0,1,4,1.156,-45.892,0.0,0.0,0.0,0.0,1,1,0
105,'1',1,1,4,2.76,1.019,0.0,0.0,0.0,0.0,1,1,0
106,'1',1,1,4,3.534,1.483,0.0,0.0,0.0,0.0,1,1,0
108,'1',1,1,4,4.965,1.651,0.0,0.0,0.0,0.0,1,1,0
108,'99',1,1,4,1.331,-10.415,0.0,0.0,0.0,0.0,1,1,0
109,'1',1,1,4,5.307,1.393,0.0,0.0,0.0,0.0,1,1,0
110,'1',1,1,4,1.206,0.516,0.0,0.0,0.0,0.0,1,1,0
111,'1',1,1,4,2.154,0.916,0.0,0.0,0.0,0.0,1,1,0
112,'1',1,1,4,8.719,3.244,0.0,0.0,0.0,0.0,1,1,0
115,'1',1,1,4,3.102,1.116,0.0,0.0,0.0,0.0,1,1,0
116,'1',1,1,4,15.225,13.607,0.0,0.0,0.0,0.0,1,1,0
118,'1',1,1,4,3.521,1.49,0.0,0.0,0.0,0.0,1,1,0
120,'1',1,1,4,6.204,2.025,0.0,0.0,0.0,0.0,1,1,0
121,'1',1,1,4,0.0,0.0,0.0,0.0,0.0,0.0,1,1,0
128,'1',1,1,4,0.645,0.245,0.0,0.0,0.0,0.0,1,1,0
129,'1',1,1,4,2.895,2.006,0.0,0.0,0.0,0.0,1,1,0
131,'1',1,1,4,51.589,25.15,0.0,0.0,0.0,0.0,1,1,0
132,'1',1,1,4,3.373,1.167,0.0,0.0,0.0,0.0,1,1,0
133,'1',1,1,4,1.238,0.387,0.0,0.0,0.0,0.0,1,1,0
134,'1',1,1,4,34.178,16.135,0.0,0.0,0.0,0.0,1,1,0
135,'1',1,1,4,3.869,1.374,0.0,0.0,0.0,0.0,1,1,0
136,'1',1,1,4,1.793,0.58,0.0,0.0,0.0,0.0,1,1,0
137,'1',1,1,4,6.816,2.263,0.0,0.0,0.0,0.0,1,1,0
137,'99',0,1,4,28.183,-12.764,0.0,0.0,0.0,0.0,1,1,0
138,'1',1,1,4,0.277,0.064,0.0,0.0,0.0,0.0,1,1,0
140,'1',1,1,4,1.793,1.07,0.0,0.0,0.0,0.0,1,1,0
141,'1',1,1,4,3.76,0.432,0.0,0.0,0.0,0.0,1,1,0
142,'1',1,1,4,5.236,1.78,0.0,0.0,0.0,0.0,1,1,0
143,'99',0,1,4,0.426,1.249,0.0,0.0,0.0,0.0,1,1,0
145,'99',0,1,4,53.244,16.969,0.0,0.0,0.0,0.0,1,1,0
146,'1',1,1,4,1.032,0.258,0.0,0.0,0.0,0.0,1,1,0
147,'1',1,1,4,0.69,0.316,0.0,0.0,0.0,0.0,1,1,0
148,'1',1,1,4,4.211,1.799,0.0,0.0,0.0,0.0,1,1,0
149,'99',0,1,4,9.227,-8.412,0.0,0.0,0.0,0.0,1,1,0
150,'1',1,1,4,3.102,0.974,0.0,0.0,0.0,0.0,1,1,0
151,'1',1,1,4,12.194,19.481,0.0,0.0,0.0,0.0,1,1,0
152,'1',1,1,4,4.514,9.028,0.0,0.0,0.0,0.0,1,1,0
153,'1',1,1,4,5.862,1.973,0.0,0.0,0.0,0.0,1,1,0
157,'1',1,1,4,1.896,0.806,0.0,0.0,0.0,0.0,1,1,0
159,'1',1,1,4,9.383,0.355,0.0,0.0,0.0,0.0,1,1,0
160,'1',1,1,4,7.242,1.715,0.0,0.0,0.0,0.0,1,1,0
161,'1',1,1,4,4.114,1.786,0.0,0.0,0.0,0.0,1,1,0
162,'1',1,1,4,5.359,2.373,0.0,0.0,0.0,0.0,1,1,0
163,'1',1,1,4,0.548,0.052,0.0,0.0,0.0,0.0,1,1,0
165,'1',1,1,4,0.426,0.251,0.0,0.0,0.0,0.0,1,1,0
166,'1',1,1,4,0.342,0.2,0.0,0.0,0.0,0.0,1,1,0
168,'1',1,1,4,6.687,2.231,0.0,0.0,0.0,0.0,1,1,0
169,'1',1,1,4,1.657,0.6,0.0,0.0,0.0,0.0,1,1,0
171,'1',1,1,4,3.45,0.49,0.0,0.0,0.0,0.0,1,1,0
173,'1',1,1,4,4.682,1.748,0.0,0.0,0.0,0.0,1,1,0
175,'1',1,1,4,1.928,0.735,0.0,0.0,0.0,0.0,1,1,0
176,'1',1,1,4,4.14,1.47,0.0,0.0,0.0,0.0,1,1,0
179,'1',1,1,4,3.863,1.328,0.0,0.0,0.0,0.0,1,1,0
181,'1',1,1,4,2.928,1.219,0.0,0.0,0.0,0.0,1,1,0
182,'1',1,1,4,2.76,1.154,0.0,0.0,0.0,0.0,1,1,0
184,'1',1,1,4,2.347,0.793,0.0,0.0,0.0,0.0,1,1,0
185,'1',1,1,4,2.754,1.0,0.0,0.0,0.0,0.0,1,1,0
188,'1',1,1,4,0.484,0.239,0.0,0.0,0.0,0.0,1,1,0
189,'1',1,1,4,0.825,0.374,0.0,0.0,0.0,0.0,1,1,0
191,'1',1,1,4,2.966,1.116,0.0,0.0,0.0,0.0,1,1,0
193,'1',1,1,4,2.966,1.051,0.0,0.0,0.0,0.0,1,1,0
194,'1',1,1,4,7.861,2.554,0.0,0.0,0.0,0.0,1,1,0
195,'99',0,1,4,18.155,5.789,0.0,0.0,0.0,0.0,1,1,0
196,'1',1,1,4,0.0,0.0,0.0,0.0,0.0,0.0,1,1,0
198,'1',1,1,4,2.483,0.89,0.0,0.0,0.0,0.0,1,1,0
200,'1',1,1,4,3.424,0.954,0.0,0.0,0.0,0.0,1,1,0
201,'1',1,1,4,4.785,1.296,0.0,0.0,0.0,0.0,1,1,0
202,'1',1,1,4,1.386,0.361,0.0,0.0,0.0,0.0,1,1,0
204,'1',1,1,4,7.622,3.005,0.0,0.0,0.0,0.0,1,1,0
205,'1',1,1,4,7.229,3.121,0.0,0.0,0.0,0.0,1,1,0
206,'1',1,1,4,2.663,1.096,0.0,0.0,0.0,0.0,1,1,0
207,'1',1,1,4,1.657,0.671,0.0,0.0,0.0,0.0,1,1,0
208,'99',1,1,4,22.163,-1.089,0.0,0.0,0.0,0.0,1,1,0
209,'1',1,1,4,0.342,0.193,0.0,0.0,0.0,0.0,1,1,0
213,'99',1,1,9,30.802,10.72,0.0,0.0,0.0,0.0,1,1,0
214,'99',1,1,9,176.071,14.294,0.0,0.0,0.0,0.0,1,1,0
216,'99',1,1,9,49.911,29.051,0.0,0.0,0.0,0.0,1,1,0
220,'99',0,1,9,659.876,-1.015,0.0,0.0,0.0,0.0,1,1,0
221,'1',1,1,9,20.739,33.578,0.0,0.0,0.0,0.0,1,1,0
222,'1',1,1,9,29.896,59.373,0.0,0.0,0.0,0.0,1,1,0
223,'1',1,1,9,38.692,77.384,0.0,0.0,0.0,0.0,1,1,0
224,'1',1,1,9,38.692,77.384,0.0,0.0,0.0,0.0,1,1,0
224,'99',1,1,9,647.82,106.239,0.0,0.0,0.0,0.0,1,1,0
225,'99',1,1,9,241.207,54.547,0.0,0.0,0.0,0.0,1,1,0
226,'99',1,1,9,45.982,37.889,0.0,0.0,0.0,0.0,1,1,0
227,'99',1,1,9,43.891,-35.043,0.0,0.0,0.0,0.0,1,1,0
228,'1',1,1,9,25.021,-1.741,0.0,0.0,0.0,0.0,1,1,0
229,'99',1,1,9,9.057,16.467,0.0,0.0,0.0,0.0,1,1,0
231,'99',1,1,9,96.788,35.856,0.0,0.0,0.0,0.0,1,1,0
234,'99',1,1,9,4.794,24.763,0.0,0.0,0.0,0.0,1,1,0
235,'99',1,1,9,31.938,26.058,0.0,0.0,0.0,0.0,1,1,0
236,'1',1,1,9,4.965,12.897,0.0,0.0,0.0,0.0,1,1,0
236,'99',1,1,9,200.416,-8.25,0.0,0.0,0.0,0.0,1,1,0
237,'1',1,1,9,2.483,0.645,0.0,0.0,0.0,0.0,1,1,0
238,'1',1,1,9,1.464,0.716,0.0,0.0,0.0,0.0,1,1,0
239,'1',1,1,9,1.019,0.258,0.0,0.0,0.0,0.0,1,1,0
240,'1',1,1,9,2.863,0.709,0.0,0.0,0.0,0.0,1,1,0
241,'1',1,1,9,2.992,0.258,0.0,0.0,0.0,0.0,1,1,0
241,'99',1,1,9,2.296,-0.179,0.0,0.0,0.0,0.0,1,1,0
242,'1',1,1,9,8.957,5.004,0.0,0.0,0.0,0.0,1,1,0
243,'1',1,1,9,12.588,7.242,0.0,0.0,0.0,0.0,1,1,0
245,'99',1,1,9,51.572,5.924,0.0,0.0,0.0,0.0,1,1,0
246,'1',1,1,9,12.897,25.795,0.0,0.0,0.0,0.0,1,1,0
247,'1',1,1,9,13.175,13.297,0.0,0.0,0.0,0.0,1,1,0
248,'1',1,1,9,23.538,7.745,0.0,0.0,0.0,0.0,1,1,0
249,'99',1,1,9,53.572,6.986,0.0,0.0,0.0,0.0,1,1,0
250,'1',1,1,9,0.097,0.432,0.0,0.0,0.0,0.0,1,1,0
251,'1',1,1,9,11.943,7.9,0.0,0.0,0.0,0.0,1,1,0
252,'1',1,1,9,9.086,3.953,0.0,0.0,0.0,0.0,1,1,0
253,'1',1,1,9,5.597,0.645,0.0,0.0,0.0,0.0,1,1,0
253,'99',1,1,9,5.101,-3.369,0.0,0.0,0.0,0.0,1,1,0
254,'99',1,1,9,45.319,13.213,0.0,0.0,0.0,0.0,1,1,0
256,'1',1,1,9,3.624,0.774,0.0,0.0,0.0,0.0,1,1,0
257,'1',1,1,9,3.624,0.838,0.0,0.0,0.0,0.0,1,1,0
257,'99',1,1,9,14.388,9.213,0.0,0.0,0.0,0.0,1,1,0
258,'1',1,1,9,2.289,0.193,0.0,0.0,0.0,0.0,1,1,0
259,'1',1,1,9,1.528,0.387,0.0,0.0,0.0,0.0,1,1,0
260,'1',1,1,9,2.289,0.387,0.0,0.0,0.0,0.0,1,1,0
261,'1',1,1,9,1.335,0.258,0.0,0.0,0.0,0.0,1,1,0
262,'99',1,1,9,1.654,-5.472,0.0,0.0,0.0,0.0,1,1,0
263,'1',1,1,9,0.761,0.193,0.0,0.0,0.0,0.0,1,1,0
264,'1',1,1,9,0.258,0.064,0.0,0.0,0.0,0.0,1,1,0
266,'1',1,1,5,1.915,2.128,0.0,0.0,0.0,0.0,1,1,0
267,'1',1,1,5,9.473,4.508,0.0,0.0,0.0,0.0,1,1,0
269,'1',1,1,5,-5.533,0.98,0.0,0.0,0.0,0.0,1,1,0
270,'1',1,1,5,4.121,1.947,0.0,0.0,0.0,0.0,1,1,0
272,'1',1,1,5,19.778,3.747,0.0,0.0,0.0,0.0,1,1,0
273,'1',1,1,5,2.425,1.78,0.0,0.0,0.0,0.0,1,1,0
274,'1',1,1,5,10.015,2.689,0.0,0.0,0.0,0.0,1,1,0
277,'99',1,1,5,104.115,50.966,0.0,0.0,0.0,0.0,1,1,0
279,'1',1,1,5,4.766,1.986,0.0,0.0,0.0,0.0,1,1,0
281,'1',1,1,5,1.316,1.947,0.0,0.0,0.0,0.0,1,1,0
284,'1',1,1,5,3.837,1.245,0.0,0.0,0.0,0.0,1,1,0
284,'99',1,1,5,4.281,3.568,0.0,0.0,0.0,0.0,1,1,0
285,'1',1,1,5,1.386,1.283,0.0,0.0,0.0,0.0,1,1,0
286,'1',1,1,5,0.916,1.825,0.0,0.0,0.0,0.0,1,1,0
287,'1',1,1,5,0.877,1.709,0.0,0.0,0.0,0.0,1,1,0
289,'1',1,1,5,3.882,2.089,0.0,0.0,0.0,0.0,1,1,0
289,'99',1,1,5,1.372,-1.8,0.0,0.0,0.0,0.0,1,1,0
...
0 / END OF LOAD DATA BEGIN FIXED SHUNT DATA
2,'1',1,0.0,15.498
23,'1',1,0.0,-120.31
36,'1',1,0.0,-4.438
58,'1',1,0.0,10.592
81,'1',1,0.0,21.502
98,'1',1,0.0,-24.285
100,'1',1,0.0,4.571
102,'1',1,0.0,-43.607
133,'1',1,0.0,-1.321
137,'1',1,0.0,-13.204
143,'1',1,0.0,1.197
145,'1',1,0.0,16.36
149,'1',1,0.0,-8.091
156,'1',1,0.0,40.892
195,'1',1,0.0,5.562
220,'1',1,0.0,-1.094
304,'1',1,0.0,2.218
348,'1',1,0.0,5.534
357,'1',1,0.0,-30.025
363,'1',1,0.0,24.399
364,'1',1,0.0,-71.188
367,'1',1,0.0,60.608
376,'1',1,0.0,-9.534
380,'1',1,0.0,11.017
386,'1',1,0.0,-5.842
390,'1',1,0.0,12.518
428,'1',1,0.0,-7.317
442,'1',1,0.0,-7.663
443,'1',1,0.0,12.284
444,'1',1,0.0,19.281
460,'1',1,0.0,32.216
525,'1',1,0.0,100.748
576,'1',1,0.0,-63.285
591,'1',1,0.0,22.609
595,'1',1,0.0,6.261
623,'1',1,0.0,-2.498
624,'1',1,0.0,6.887
631,'1',1,0.0,30.406
639,'1',1,0.0,-66.624
640,'1',1,0.0,-75.05
642,'1',1,0.0,88.396
653,'1',1,0.0,26.664
684,'1',1,0.0,0.059
696,'1',1,0.0,-1.903
697,'1',1,0.0,-37.362
743,'1',1,0.0,-1.15
748,'1',1,0.0,-19.101
791,'1',1,0.0,0.336
794,'1',1,0.0,-2.22
0 / END OF FIXED SHUNT DATA BEGIN GENERATOR DATA
6,'1',0.0,0.0,33.333,-33.333,0.9534,0,100.0,0.0,1.0,0.0,0.0,1.0,0,100.0,63.0,28.5,1,1.0,0,1.0,0,1.0,0,1.0,0,1.0
23,'98',5.515,82.287,183.0,-183.0,1.01,0,100.0,0.0,1.0,0.0,0.0,1.0,1,100.0,526.316,2.0,1,1.0,0,1.0,0,1.0,0,1.0,0,1.0
25,'1',0.0,0.0,22.5,-22.5,0.9534,0,67.5,0.0,0.165,0.0,0.0,1.0,0,100.0,280.0,2.0,1,1.0,0,1.0,0,1.0,0,1.0,0,1.0
25,'2',0.0,0.0,22.5,-22.5,0.9534,0,67.5,0.0,0.165,0.0,0.0,1.0,0,100.0,60.43,14.25,1,1.0,0,1.0,0,1.0,0,1.0,0,1.0
31,'99',64.589,12.227,160.0,-160.0,1.0099,0,100.0,0.0,1.0,0.0,0.0,1.0,1,100.0,136.038,34.685,1,1.0,0,1.0,0,1.0,0,1.0,0,1.0
33,'1',0.0,0.0,19.29,-19.29,1.0087,0,57.87,0.0,0.148,0.0047,0.0939,1.0,0,100.0,46.2,11.4,1,1.0,0,1.0,0,1.0,0,1.0,0,1.0
35,'1',0.0,0.0,33.127,-33.127,1.0101,0,99.38,0.0,0.178,0.0045,0.0928,1.0,0,100.0,288.0,2.0,1,1.0,0,1.0,0,1.0,0,1.0,0,1.0
35,'2',0.0,0.0,23.05,-23.05,1.0101,0,69.15,0.0,0.135,0.002,0.0585,1.0,0,100.0,300.0,2.0,1,1.0,0,1.0,0,1.0,0,1.0,0,1.0
35,'3',0.0,0.0,16.237,-16.237,1.0101,0,48.71,0.0,0.193,0.0016,0.0541,1.0,0,100.0,40.14,25.14,1,1.0,0,1.0,0,1.0,0,1.0,0,1.0
43,'99',2.2,-4.44,160.0,-160.0,1.0131,0,100.0,0.0,1.0,0.0,0.0,1.0,1,100.0,301.053,1.129,1,1.0,0,1.0,0,1.0,0,1.0,0,1.0
45,'1',0.0,0.0,67.75,-67.75,1.0087,0,203.25,0.0,0.226,0.0094,0.1876,1.0,0,100.0,173.25,50.54,1,1.0,0,1.0,0,1.0,0,1.0,0,1.0
46,'99',21.446,-15.538,160.0,-160.0,1.0048,0,100.0,0.0,1.0,0.0,0.0,1.0,1,100.0,55.716,11.516,1,1.0,0,1.0,0,1.0,0,1.0,0,1.0
47,'99',28.438,-11.062,160.0,-160.0,1.0131,0,100.0,0.0,1.0,0.0,0.0,1.0,1,100.0,68.734,15.271,1,1.0,0,1.0,0,1.0,0,1.0,0,1.0
52,'99',51.526,-50.935,160.0,-160.0,1.0051,0,100.0,0.0,1.0,0.0,0.0,1.0,1,100.0,111.717,27.67,1,1.0,0,1.0,0,1.0,0,1.0,0,1.0
55,'99',64.569,-13.804,160.0,-160.0,1.0108,0,100.0,0.0,1.0,0.0,0.0,1.0,1,100.0,136.0,34.674,1,1.0,0,1.0,0,1.0,0,1.0,0,1.0
59,'1',5.833,66.11,66.11,-103.578,1.04,0,100.0,0.0,1.0,0.0,0.0,1.0,1,100.0,297.895,3.833,1,1.0,0,1.0,0,1.0,0,1.0,0,1.0
65,'1',9.393,-1.448,92.232,-2.97,1.0166,0,27.8,0.0,0.32,0.0,0.0,1.0,1,100.0,265.263,7.393,1,1.0,0,1.0,0,1.0,0,1.0,0,1.0
65,'2',0.0,0.0,9.267,-9.267,1.0166,0,27.8,0.0,0.32,0.0,0.0,1.0,0,100.0,25.2,4.75,1,1.0,0,1.0,0,1.0,0,1.0,0,1.0
71,'99',27.992,-9.676,160.0,-160.0,1.0159,0,100.0,0.0,1.0,0.0,0.0,1.0,1,100.0,67.904,15.032,1,1.0,0,1.0,0,1.0,0,1.0,0,1.0
80,'1',0.0,0.0,9.267,-9.267,1.0166,0,27.8,0.0,0.32,0.0,0.0,1.0,0,100.0,26.25,4.75,1,1.0,0,1.0,0,1.0,0,1.0,0,1.0
80,'2',0.0,0.0,9.267,-9.267,1.0166,0,27.8,0.0,0.32,0.0,0.0,1.0,0,100.0,25.2,2.0,1,1.0,0,1.0,0,1.0,0,1.0,0,1.0
86,'99',36.31,-2.046,160.0,-160.0,1.0107,0,100.0,0.0,1.0,0.0,0.0,1.0,1,100.0,83.388,19.498,1,1.0,0,1.0,0,1.0,0,1.0,0,1.0
87,'1',0.0,0.0,95.526,-95.526,1.0051,0,100.0,0.0,1.0,0.0,0.0,1.0,0,100.0,274.737,2.0,1,1.0,0,1.0,0,1.0,0,1.0,0,1.0
90,'99',23.531,14.602,160.0,-160.0,1.0078,0,100.0,0.0,1.0,0.0,0.0,1.0,1,100.0,59.599,12.637,1,1.0,0,1.0,0,1.0,0,1.0,0,1.0
93,'99',5.521,-63.519,160.0,-160.0,1.0161,0,100.0,0.0,1.0,0.0,0.0,1.0,1,100.0,265.263,2.965,1,1.0,0,1.0,0,1.0,0,1.0,0,1.0
98,'99',50.268,-25.234,33.333,-33.333,1.01935,0,100.0,0.0,1.0,0.0,0.0,1.0,0,100.0,65.268,50.268,1,1.0,0,1.0,0,1.0,0,1.0,0,1.0
99,'1',0.0,0.0,52.613,-1.0,1.02455,0,163.45,0.0,0.18,0.0,0.0,1.0,0,100.0,151.316,70.0,1,1.0,0,1.0,0,1.0,0,1.0,0,1.0
100,'1',0.0,0.0,52.613,-1.0,1.02455,0,148.19,0.0,0.18,0.0,0.0,1.0,0,100.0,151.316,70.0,1,1.0,0,1.0,0,1.0,0,1.0,0,1.0
100,'99',13.104,4.798,33.333,-33.333,1.02455,0,100.0,0.0,1.0,0.0,0.0,1.0,0,100.0,28.104,13.104,1,1.0,0,1.0,0,1.0,0,1.0,0,1.0
105,'97',6.0,-43.92,43.92,-43.92,1.0,0,100.0,0.0,1.0,0.0,0.0,1.0,1,100.0,126.316,5.0,1,1.0,0,1.0,0,1.0,0,1.0,0,1.0
116,'1',0.0,0.0,50.325,-40.0,1.02455,0,147.7,0.0,0.18,0.0,0.0,1.0,0,100.0,144.737,32.0,1,1.0,0,1.0,0,1.0,0,1.0,0,1.0
117,'1',0.0,0.0,37.667,-37.667,1.02455,0,113.0,0.0,0.18,0.0,0.0,1.0,0,100.0,113.0,32.0,1,1.0,0,1.0,0,1.0,0,1.0,0,1.0
121,'1',0.0,0.0,45.0,-45.0,1.02455,0,135.0,0.0,0.18,0.0,0.0,1.0,0,100.0,135.0,35.0,1,1.0,0,1.0,0,1.0,0,1.0,0,1.0
131,'1',0.0,0.0,8.333,-8.333,1.02182,0,25.0,0.0,0.2,0.0,0.0,1.0,0,100.0,25.0,10.0,1,1.0,0,1.0,0,1.0,0,1.0,0,1.0
131,'2',0.0,0.0,8.333,-8.333,1.02182,0,25.0,0.0,0.2,0.0,0.0,1.0,0,100.0,25.0,10.0,1,1.0,0,1.0,0,1.0,0,1.0,0,1.0
131,'3',0.0,0.0,11.438,-11.438,1.02182,0,30.0,0.0,0.2,0.0,0.0,1.0,0,100.0,32.895,10.0,1,1.0,0,1.0,0,1.0,0,1.0,0,1.0
131,'4',0.0,0.0,9.15,-9.15,1.02182,0,25.0,0.0,0.2,0.0,0.0,1.0,0,100.0,26.316,10.0,1,1.0,0,1.0,0,1.0,0,1.0,0,1.0
133,'99',2.396,-1.381,33.333,-33.333,1.0226,0,100.0,0.0,1.0,0.0,0.0,1.0,0,100.0,295.0,2.396,1,1.0,0,1.0,0,1.0,0,1.0,0,1.0
134,'1',6.0,16.667,16.667,-16.667,1.0,0,50.0,0.0,0.2,0.0,0.0,1.0,1,100.0,52.632,5.0,1,1.0,0,1.0,0,1.0,0,1.0,0,1.0
151,'1',0.0,0.0,43.92,-1.0,1.02455,0,120.0,0.0,0.18,0.0,0.0,1.0,0,100.0,126.316,70.0,1,1.0,0,1.0,0,1.0,0,1.0,0,1.0
151,'2',120.0,43.92,43.92,-1.0,1.02455,0,120.0,0.0,0.18,0.0,0.0,1.0,1,100.0,126.316,58.333,1,1.0,0,1.0,0,1.0,0,1.0,0,1.0
151,'97',6.0,43.92,43.92,-43.92,1.02455,0,100.0,0.0,1.0,0.0,0.0,1.0,1,100.0,126.316,5.0,1,1.0,0,1.0,0,1.0,0,1.0,0,1.0
152,'1',149.993,54.897,54.897,-1.0,1.02455,0,144.0,0.0,0.18,0.0,0.0,1.0,1,100.0,157.887,79.0,1,1.0,0,1.0,0,1.0,0,1.0,0,1.0
152,'2',0.0,0.0,36.667,-36.667,1.02455,0,110.0,0.0,0.18,0.0,0.0,1.0,0,100.0,110.0,79.0,1,1.0,0,1.0,0,1.0,0,1.0,0,1.0
156,'99',47.466,43.051,33.333,-33.333,1.02608,0,100.0,0.0,1.0,0.0,0.0,1.0,0,100.0,62.466,47.466,1,1.0,0,1.0,0,1.0,0,1.0,0,1.0
159,'99',2.2,46.019,160.0,-160.0,1.0193,0,100.0,0.0,1.0,0.0,0.0,1.0,1,100.0,308.421,0.037,1,1.0,0,1.0,0,1.0,0,1.0,0,1.0
179,'97',11.0,-43.92,43.92,-43.92,1.0,0,100.0,0.0,1.0,0.0,0.0,1.0,1,100.0,126.316,10.0,1,1.0,0,1.0,0,1.0,0,1.0,0,1.0
190,'99',33.767,71.276,160.0,-160.0,1.033,0,100.0,0.0,1.0,0.0,0.0,1.0,1,100.0,83.856,18.133,1,1.0,0,1.0,0,1.0,0,1.0,0,1.0
221,'1',0.0,0.0,123.333,-123.333,1.02864,0,370.0,0.0,0.21,0.0,0.0,1.0,0,100.0,370.0,240.0,1,1.0,0,1.0,0,1.0,0,1.0,0,1.0
221,'2',0.0,0.0,123.333,-123.333,1.02864,0,370.0,0.0,0.21,0.0,0.0,1.0,0,100.0,370.0,240.0,1,1.0,0,1.0,0,1.0,0,1.0,0,1.0
221,'3',0.0,0.0,157.837,-23.75,1.02864,0,449.45,0.0,0.21,0.0,0.0,1.0,0,100.0,453.947,240.0,1,1.0,0,1.0,0,1.0,0,1.0,0,1.0
222,'1',462.5,150.618,169.275,-19.0,1.02864,0,455.56,0.0,0.21,0.0,0.0,1.0,1,100.0,486.842,240.0,1,1.0,0,1.0,0,1.0,0,1.0,0,1.0
222,'2',0.0,0.0,135.42,-19.0,1.02864,0,397.31,0.0,0.21,0.0,0.0,1.0,0,100.0,389.474,240.0,1,1.0,0,1.0,0,1.0,0,1.0,0,1.0
223,'1',353.913,-10.723,190.0,-19.0,1.012,0,616.84,0.0,0.235,0.0,0.0,1.0,1,100.0,1148.453,50.876,1,1.0,0,1.0,0,1.0,0,1.0,0,1.0
223,'2',353.913,-10.723,190.0,-19.0,1.012,0,616.84,0.0,0.235,0.0,0.0,1.0,1,100.0,1148.453,50.876,1,1.0,0,1.0,0,1.0,0,1.0,0,1.0
223,'3',353.913,-10.723,190.0,-19.0,1.012,0,616.84,0.0,0.235,0.0,0.0,1.0,1,100.0,1148.453,50.876,1,1.0,0,1.0,0,1.0,0,1.0,0,1.0
224,'1',0.0,0.0,169.275,-19.0,1.012,0,451.84,0.0,0.21,0.0,0.0,1.0,0,100.0,486.842,240.0,1,1.0,0,1.0,0,1.0,0,1.0,0,1.0
224,'2',425.0,67.01,155.55,-19.0,1.012,0,416.51,0.0,0.21,0.0,0.0,1.0,1,100.0,447.368,240.0,1,1.0,0,1.0,0,1.0,0,1.0,0,1.0
224,'3',425.0,67.01,155.55,-19.0,1.012,0,416.51,0.0,0.21,0.0,0.0,1.0,1,100.0,447.368,240.0,1,1.0,0,1.0,0,1.0,0,1.0,0,1.0
233,'99',80.26,-44.854,160.0,-160.0,1.0041,0,100.0,0.0,1.0,0.0,0.0,1.0,1,100.0,186.779,43.1,1,1.0,0,1.0,0,1.0,0,1.0,0,1.0
236,'1',0.0,0.0,50.325,-15.0,1.02045,0,166.81,0.0,0.18,0.0,0.0,1.0,0,100.0,144.737,91.667,1,1.0,0,1.0,0,1.0,0,1.0,0,1.0
236,'98',3.0,80.185,183.0,-183.0,1.02045,0,120.0,0.0,0.18,0.0,0.0,1.0,1,100.0,526.316,2.0,1,1.0,0,1.0,0,1.0,0,1.0,0,1.0
246,'1',437.5,66.606,160.125,-19.0,1.01364,0,477.9,0.0,0.21,0.0,0.0,1.0,1,100.0,460.526,240.0,1,1.0,0,1.0,0,1.0,0,1.0,0,1.0
250,'1',0.0,0.0,10.98,-10.98,1.02182,0,30.0,0.0,0.2,0.0,0.0,1.0,0,100.0,31.579,2.0,1,1.0,0,1.0,0,1.0,0,1.0,0,1.0
256,'1',0.0,0.0,92.964,-92.964,1.02455,0,0.43,0.0,0.2,0.0,0.0,1.0,0,100.0,267.368,2.0,1,1.0,0,1.0,0,1.0,0,1.0,0,1.0
267,'99',4.89,6.407,160.0,-160.0,1.01,0,100.0,0.0,1.0,0.0,0.0,1.0,1,100.0,309.474,2.626,1,1.0,0,1.0,0,1.0,0,1.0,0,1.0
268,'99',181.471,147.398,160.0,-160.0,1.018,0,100.0,0.0,1.0,0.0,0.0,1.0,1,100.0,422.316,97.451,1,1.0,0,1.0,0,1.0,0,1.0,0,1.0
272,'99',28.41,31.763,160.0,-160.0,1.0194,0,100.0,0.0,1.0,0.0,0.0,1.0,1,100.0,78.395,15.257,1,1.0,0,1.0,0,1.0,0,1.0,0,1.0
275,'99',2.721,-56.387,160.0,-160.0,1.0185,0,100.0,0.0,1.0,0.0,0.0,1.0,1,100.0,76.902,1.461,1,1.0,0,1.0,0,1.0,0,1.0,0,1.0
281,'99',3.318,-0.762,160.0,-160.0,1.0102,0,100.0,0.0,1.0,0.0,0.0,1.0,1,100.0,286.316,1.782,1,1.0,0,1.0,0,1.0,0,1.0,0,1.0
293,'1',0.0,0.0,76.667,-76.667,1.0259,0,230.0,0.0023,0.168,0.0,0.0,1.025,0,100.0,173.25,117.8,1,1.0,0,1.0,0,1.0,0,1.0,0,1.0
296,'1',0.0,0.0,76.667,-76.667,1.0259,0,230.0,0.0023,0.168,0.0,0.0,1.025,0,100.0,173.25,117.8,1,1.0,0,1.0,0,1.0,0,1.0,0,1.0
298,'99',7.414,5.527,160.0,-160.0,1.0278,0,100.0,0.0,1.0,0.0,0.0,1.0,1,100.0,29.593,3.981,1,1.0,0,1.0,0,1.0,0,1.0,0,1.0
303,'97',70.549,-8.658,43.92,-43.92,1.0,0,100.0,0.0,1.0,0.0,0.0,1.0,1,100.0,126.316,5.0,1,1.0,0,1.0,0,1.0,0,1.0,0,1.0
304,'99',29.434,2.277,33.333,-33.333,1.01312,0,100.0,0.0,1.0,0.0,0.0,1.0,0,100.0,44.434,29.434,1,1.0,0,1.0,0,1.0,0,1.0,0,1.0
305,'1',0.0,0.0,76.667,-76.667,1.0259,0,230.0,0.0022,0.1728,0.0,0.0,1.025,0,100.0,173.25,117.8,1,1.0,0,1.0,0,1.0,0,1.0,0,1.0
307,'99',12.372,-0.869,160.0,-160.0,1.0064,0,100.0,0.0,1.0,0.0,0.0,1.0,1,100.0,38.823,6.644,1,1.0,0,1.0,0,1.0,0,1.0,0,1.0
309,'1',0.0,0.0,147.09,-81.3,1.01,0,300.0,0.0,0.207,0.0,0.0,1.0,0,100.0,519.615,198.808,1,1.0,0,1.0,0,1.0,0,1.0,0,1.0
326,'1',0.0,0.0,76.667,-76.667,1.0259,0,230.0,0.0022,0.1728,0.0,0.0,1.025,0,100.0,173.25,117.8,1,1.0,0,1.0,0,1.0,0,1.0,0,1.0
335,'1',0.0,0.0,76.667,-76.667,1.0259,0,230.0,0.0022,0.1728,0.0,0.0,1.025,0,100.0,173.25,117.8,1,1.0,0,1.0,0,1.0,0,1.0,0,1.0
337,'99',3.551,2.202,160.0,-160.0,1.01,0,100.0,0.0,1.0,0.0,0.0,1.0,1,100.0,272.632,1.907,1,1.0,0,1.0,0,1.0,0,1.0,0,1.0
342,'1',0.0,0.0,99.918,-99.918,1.03,0,100.0,0.0,1.0,0.0,0.0,1.0,0,100.0,287.368,2.0,1,1.0,0,1.0,0,1.0,0,1.0,0,1.0
345,'99',6.944,5.136,160.0,-160.0,1.0278,0,100.0,0.0,1.0,0.0,0.0,1.0,1,100.0,28.717,3.729,1,1.0,0,1.0,0,1.0,0,1.0,0,1.0
350,'99',63.578,-15.354,160.0,-160.0,1.0018,0,100.0,0.0,1.0,0.0,0.0,1.0,1,100.0,134.156,34.142,1,1.0,0,1.0,0,1.0,0,1.0,0,1.0
352,'1',0.0,0.0,302.333,-302.333,1.0259,0,907.0,0.0038,0.22,0.0,0.0,1.0,0,100.0,254.0,2.0,1,1.0,0,1.0,0,1.0,0,1.0,0,1.0
353,'99',47.563,-97.076,160.0,-160.0,1.0063,0,100.0,0.0,1.0,0.0,0.0,1.0,1,100.0,124.492,25.542,1,1.0,0,1.0,0,1.0,0,1.0,0,1.0
357,'99',122.965,-29.975,33.333,-33.333,1.01,0,100.0,0.0,1.0,0.0,0.0,1.0,0,100.0,137.965,122.965,1,1.0,0,1.0,0,1.0,0,1.0,0,1.0
361,'99',240.286,-160.0,160.0,-160.0,1.01,0,100.0,0.0,1.0,0.0,0.0,1.0,1,100.0,526.43,129.035,1,1.0,0,1.0,0,1.0,0,1.0,0,1.0
364,'99',27.029,-71.598,33.333,-33.333,1.00286,0,100.0,0.0,1.0,0.0,0.0,1.0,0,100.0,42.029,27.029,1,1.0,0,1.0,0,1.0,0,1.0,0,1.0
370,'1',0.0,0.0,92.945,-62.0,1.01125,0,216.55,0.0,0.18,0.0,0.0,1.0,0,100.0,267.313,99.538,1,1.0,0,1.0,0,1.0,0,1.0,0,1.0
370,'2',0.0,0.0,92.945,-62.0,1.01125,0,179.0,0.0,0.18,0.0,0.0,1.0,0,100.0,267.313,99.538,1,1.0,0,1.0,0,1.0,0,1.0,0,1.0
370,'3',0.0,0.0,92.945,-75.0,1.01125,0,179.0,0.0,0.18,0.0,0.0,1.0,0,100.0,267.313,99.538,1,1.0,0,1.0,0,1.0,0,1.0,0,1.0
371,'1',0.0,0.0,65.514,-65.514,1.01125,0,179.0,0.0,0.18,0.0,0.0,1.0,0,100.0,188.421,2.0,1,1.0,0,1.0,0,1.0,0,1.0,0,1.0
373,'1',0.0,0.0,20.13,-20.13,1.01909,0,58.99,0.0,0.2,0.0,0.0,1.0,0,100.0,57.895,26.0,1,1.0,0,1.0,0,1.0,0,1.0,0,1.0
374,'1',0.0,0.0,18.333,-18.333,1.01909,0,55.0,0.0,0.2,0.0,0.0,1.0,0,100.0,55.0,26.0,1,1.0,0,1.0,0,1.0,0,1.0,0,1.0
375,'1',0.0,0.0,107.604,-107.604,1.02182,0,0.36,0.0,0.2,0.0,0.0,1.0,0,100.0,309.474,2.0,1,1.0,0,1.0,0,1.0,0,1.0,0,1.0
376,'1',0.0,0.0,9.516,-9.516,1.02727,0,26.0,0.0,0.2,0.0,0.0,1.0,0,100.0,27.368,2.0,1,1.0,0,1.0,0,1.0,0,1.0,0,1.0
376,'99',3.293,-10.061,33.333,-33.333,1.02727,0,100.0,0.0,1.0,0.0,0.0,1.0,0,100.0,261.0,3.293,1,1.0,0,1.0,0,1.0,0,1.0,0,1.0
380,'99',18.035,11.613,33.333,-33.333,1.02669,0,100.0,0.0,1.0,0.0,0.0,1.0,0,100.0,33.035,18.035,1,1.0,0,1.0,0,1.0,0,1.0,0,1.0
384,'1',0.0,0.0,6.588,-6.588,1.02182,0,18.0,0.0,0.2,0.0,0.0,1.0,0,100.0,18.947,2.0,1,1.0,0,1.0,0,1.0,0,1.0,0,1.0
385,'1',0.0,0.0,8.052,-8.052,1.02455,0,22.0,0.0,0.2,0.0,0.0,1.0,0,100.0,23.158,2.0,1,1.0,0,1.0,0,1.0,0,1.0,0,1.0
390,'99',13.078,13.511,33.333,-33.333,1.0389,0,100.0,0.0,1.0,0.0,0.0,1.0,0,100.0,28.078,13.078,1,1.0,0,1.0,0,1.0,0,1.0,0,1.0
391,'1',0.0,0.0,108.336,-108.336,1.02182,0,0.24,0.0,0.2,0.0,0.0,1.0,0,100.0,311.579,2.0,1,1.0,0,1.0,0,1.0,0,1.0,0,1.0
395,'1',0.0,0.0,97.722,-97.722,1.02455,0,2.0,0.0,0.2,0.0,0.0,1.0,0,100.0,281.053,2.0,1,1.0,0,1.0,0,1.0,0,1.0,0,1.0
401,'1',0.0,0.0,94.794,-94.794,1.02182,0,1.0,0.0,0.2,0.0,0.0,1.0,0,100.0,272.632,2.0,1,1.0,0,1.0,0,1.0,0,1.0,0,1.0
402,'1',0.0,0.0,96.258,-96.258,1.02455,0,1.08,0.0,0.2,0.0,0.0,1.0,0,100.0,276.842,2.0,1,1.0,0,1.0,0,1.0,0,1.0,0,1.0
408,'1',0.0,0.0,107.97,-107.97,1.02455,0,0.12,0.0,0.2,0.0,0.0,1.0,0,100.0,310.526,2.0,1,1.0,0,1.0,0,1.0,0,1.0,0,1.0
414,'1',0.0,0.0,100.65,-100.65,1.02182,0,9.0,0.0,0.2,0.0,0.0,1.0,0,100.0,289.474,2.0,1,1.0,0,1.0,0,1.0,0,1.0,0,1.0
416,'1',276.0,-51.079,101.016,-101.016,1.02182,0,0.24,0.0,0.2,0.0,0.0,1.0,1,100.0,290.526,2.0,1,1.0,0,1.0,0,1.0,0,1.0,0,1.0
422,'99',7.039,45.207,160.0,-160.0,1.01,0,100.0,0.0,1.0,0.0,0.0,1.0,1,100.0,123.413,3.78,1,1.0,0,1.0,0,1.0,0,1.0,0,1.0
428,'1',190.497,101.016,101.016,-101.016,1.01364,0,7.22,0.0,0.2,0.0,0.0,1.0,1,100.0,290.526,2.0,1,1.0,0,1.0,0,1.0,0,1.0,0,1.0
428,'2',0.0,0.0,97.356,-97.356,1.01364,0,5.0,0.0,0.2,0.0,0.0,1.0,0,100.0,280.0,2.0,1,1.0,0,1.0,0,1.0,0,1.0,0,1.0
428,'3',0.0,0.0,107.97,-107.97,1.01364,0,5.0,0.0,0.2,0.0,0.0,1.0,0,100.0,310.526,2.0,1,1.0,0,1.0,0,1.0,0,1.0,0,1.0
436,'99',22.187,145.351,160.0,-160.0,1.033,0,100.0,0.0,1.0,0.0,0.0,1.0,1,100.0,121.822,11.915,1,1.0,0,1.0,0,1.0,0,1.0,0,1.0
437,'99',41.694,-40.598,160.0,-160.0,1.0287,0,100.0,0.0,1.0,0.0,0.0,1.0,1,100.0,179.592,22.39,1,1.0,0,1.0,0,1.0,0,1.0,0,1.0
442,'99',2.602,-7.664,33.333,-33.333,1.00009,0,100.0,0.0,1.0,0.0,0.0,1.0,0,100.0,275.0,2.602,1,1.0,0,1.0,0,1.0,0,1.0,0,1.0
443,'99',14.367,12.357,33.333,-33.333,1.00297,0,100.0,0.0,1.0,0.0,0.0,1.0,0,100.0,29.367,14.367,1,1.0,0,1.0,0,1.0,0,1.0,0,1.0
444,'1',0.0,0.0,1.333,-1.333,1.01909,0,4.0,0.0,0.2,0.0,0.0,1.0,0,100.0,289.0,3.0,1,1.0,0,1.0,0,1.0,0,1.0,0,1.0
449,'99',11.73,-63.083,160.0,-160.0,1.0044,0,100.0,0.0,1.0,0.0,0.0,1.0,1,100.0,47.8,6.299,1,1.0,0,1.0,0,1.0,0,1.0,0,1.0
469,'1',161.919,-44.937,92.964,-92.964,1.01364,0,2.0,0.0,0.2,0.0,0.0,1.0,1,100.0,267.368,2.0,1,1.0,0,1.0,0,1.0,0,1.0,0,1.0
470,'1',0.0,0.0,11.667,-11.667,1.01637,0,35.0,0.0,0.2,0.0,0.0,1.0,0,100.0,35.0,9.0,1,1.0,0,1.0,0,1.0,0,1.0,0,1.0
470,'2',0.0,0.0,9.201,-9.201,1.01637,0,24.12,0.0,0.2,0.0,0.0,1.0,0,100.0,26.461,9.0,1,1.0,0,1.0,0,1.0,0,1.0,0,1.0
471,'1',0.0,0.0,11.667,-11.667,1.01637,0,35.0,0.0,0.2,0.0,0.0,1.0,0,100.0,35.0,9.0,1,1.0,0,1.0,0,1.0,0,1.0,0,1.0
471,'2',0.0,0.0,10.0,-10.0,1.01637,0,30.0,0.0,0.2,0.0,0.0,1.0,0,100.0,30.0,9.0,1,1.0,0,1.0,0,1.0,0,1.0,0,1.0
471,'3',0.0,0.0,9.333,-9.333,1.01637,0,28.0,0.0,0.2,0.0,0.0,1.0,0,100.0,28.0,9.0,1,1.0,0,1.0,0,1.0,0,1.0,0,1.0
474,'99',10.13,36.067,160.0,-160.0,1.0201,0,100.0,0.0,1.0,0.0,0.0,1.0,1,100.0,70.019,10.13,1,1.0,0,1.0,0,1.0,0,1.0,0,1.0
480,'99',26.951,7.958,160.0,-160.0,1.0246,0,100.0,0.0,1.0,0.0,0.0,1.0,1,100.0,65.965,14.473,1,1.0,0,1.0,0,1.0,0,1.0,0,1.0
481,'99',20.148,23.735,160.0,-160.0,1.0299,0,100.0,0.0,1.0,0.0,0.0,1.0,1,100.0,53.3,10.82,1,1.0,0,1.0,0,1.0,0,1.0,0,1.0
482,'99',45.738,24.506,160.0,-160.0,1.0301,0,100.0,0.0,1.0,0.0,0.0,1.0,1,100.0,100.941,24.561,1,1.0,0,1.0,0,1.0,0,1.0,0,1.0
483,'99',94.763,-73.744,160.0,-160.0,1.0098,0,100.0,0.0,1.0,0.0,0.0,1.0,1,100.0,306.331,50.888,1,1.0,0,1.0,0,1.0,0,1.0,0,1.0
487,'99',64.107,58.815,160.0,-160.0,1.0367,0,100.0,0.0,1.0,0.0,0.0,1.0,1,100.0,135.14,34.426,1,1.0,0,1.0,0,1.0,0,1.0,0,1.0
490,'99',36.405,26.472,160.0,-160.0,1.0344,0,100.0,0.0,1.0,0.0,0.0,1.0,1,100.0,83.565,19.549,1,1.0,0,1.0,0,1.0,0,1.0,0,1.0
494,'99',18.983,-0.467,160.0,-160.0,1.0164,0,100.0,0.0,1.0,0.0,0.0,1.0,1,100.0,83.599,10.194,1,1.0,0,1.0,0,1.0,0,1.0,0,1.0
499,'99',34.084,74.547,160.0,-160.0,1.0239,0,100.0,0.0,1.0,0.0,0.0,1.0,1,100.0,89.883,18.303,1,1.0,0,1.0,0,1.0,0,1.0,0,1.0
525,'99',188.917,104.453,33.333,-33.333,1.01822,0,100.0,0.0,1.0,0.0,0.0,1.0,0,100.0,203.917,188.917,1,1.0,0,1.0,0,1.0,0,1.0,0,1.0
549,'99',13.627,-25.55,160.0,-160.0,1.01,0,100.0,0.0,1.0,0.0,0.0,1.0,1,100.0,58.576,7.318,1,1.0,0,1.0,0,1.0,0,1.0,0,1.0
559,'1',0.0,0.0,31.015,-31.015,1.0192,0,93.044,0.0,0.157,0.0,0.0,1.0,0,100.0,80.5,31.0,1,1.0,0,1.0,0,1.0,0,1.0,0,1.0
564,'1',0.0,0.0,47.69,-11.618,1.02214,0,141.505,0.0,0.2425,0.0,0.0,1.0,0,100.0,137.159,36.178,1,1.0,0,1.0,0,1.0,0,1.0,0,1.0
565,'1',0.0,0.0,47.692,-11.62,1.02214,0,135.577,0.0,0.1428,0.0,0.0,1.0,0,100.0,137.164,38.4,1,1.0,0,1.0,0,1.0,0,1.0,0,1.0
566,'1',0.0,0.0,47.692,-11.62,1.02214,0,120.747,0.0,0.2232,0.0,0.0,1.0,0,100.0,137.164,26.42,1,1.0,0,1.0,0,1.0,0,1.0,0,1.0
567,'1',0.0,0.0,47.692,-11.62,1.02214,0,153.119,0.0,0.1325,0.0,0.0,1.0,0,100.0,137.164,13.12,1,1.0,0,1.0,0,1.0,0,1.0,0,1.0
568,'1',0.0,0.0,47.69,-11.618,1.02214,0,120.216,0.0,0.1301,0.0,0.0,1.0,0,100.0,137.159,52.077,1,1.0,0,1.0,0,1.0,0,1.0,0,1.0
569,'1',0.0,0.0,47.692,-11.62,1.02214,0,110.999,0.0,0.1214,0.0,0.0,1.0,0,100.0,137.164,23.76,1,1.0,0,1.0,0,1.0,0,1.0,0,1.0
570,'1',0.0,0.0,44.179,-44.179,1.02214,0,132.538,0.0,0.1762,0.0,0.0,1.0,0,100.0,95.0,40.98,1,1.0,0,1.0,0,1.0,0,1.0,0,1.0
571,'1',118.268,11.709,43.286,-10.545,1.02214,0,125.632,0.0,0.2248,0.0,0.0,1.0,1,100.0,124.493,41.357,1,1.0,0,1.0,0,1.0,0,1.0,0,1.0
572,'1',0.0,0.0,43.286,-10.54,1.02214,0,97.012,0.0,0.1084,0.0,0.0,1.0,0,100.0,124.493,39.82,1,1.0,0,1.0,0,1.0,0,1.0,0,1.0
573,'1',0.0,0.0,5.906,-5.906,1.01,0,12.76,0.0,1.0,0.0,0.0,1.0,0,100.0,16.985,2.0,1,1.0,0,1.0,0,1.0,0,1.0,0,1.0
576,'99',70.769,-60.662,33.333,-33.333,1.01,0,100.0,0.0,1.0,0.0,0.0,1.0,0,100.0,85.769,70.769,1,1.0,0,1.0,0,1.0,0,1.0,0,1.0
578,'1',137.0,75.03,75.03,-21.0,1.02455,0,253.76,0.0,0.18,0.0,0.0,1.0,1,100.0,215.789,135.0,1,1.0,0,1.0,0,1.0,0,1.0,0,1.0
579,'2',0.0,0.0,68.333,-68.333,1.02455,0,205.0,0.0,0.18,0.0,0.0,1.0,0,100.0,205.0,135.0,1,1.0,0,1.0,0,1.0,0,1.0,0,1.0
579,'3',0.0,0.0,84.912,-31.0,1.02455,0,232.0,0.0,0.18,0.0,0.0,1.0,0,100.0,244.211,100.0,1,1.0,0,1.0,0,1.0,0,1.0,0,1.0
579,'98',20.0,88.267,183.0,-183.0,1.02455,0,222.0,0.0,0.18,0.0,0.0,1.0,1,100.0,526.316,2.0,1,1.0,0,1.0,0,1.0,0,1.0,0,1.0
580,'1',0.0,0.0,91.616,-15.0,1.00975,0,268.92,0.0,0.18,0.0,0.0,1.0,0,100.0,263.492,90.0,1,1.0,0,1.0,0,1.0,0,1.0,0,1.0
581,'1',0.0,0.0,77.333,-77.333,1.00975,0,232.0,0.0,0.18,0.0,0.0,1.0,0,100.0,232.0,100.0,1,1.0,0,1.0,0,1.0,0,1.0,0,1.0
581,'2',0.0,0.0,91.5,-15.0,1.00975,0,268.92,0.0,0.18,0.0,0.0,1.0,0,100.0,263.158,90.0,1,1.0,0,1.0,0,1.0,0,1.0,0,1.0
587,'99',135.738,-149.737,160.0,-160.0,1.01,0,100.0,0.0,1.0,0.0,0.0,1.0,1,100.0,963.105,72.892,1,1.0,0,1.0,0,1.0,0,1.0,0,1.0
591,'99',59.949,23.116,33.333,-33.333,1.01103,0,100.0,0.0,1.0,0.0,0.0,1.0,0,100.0,74.949,59.949,1,1.0,0,1.0,0,1.0,0,1.0,0,1.0
596,'1',222.0,1.946,81.252,-19.0,1.015,0,222.0,0.0,0.18,0.0,0.0,1.0,1,100.0,233.684,90.0,1,1.0,0,1.0,0,1.0,0,1.0,0,1.0
599,'1',0.0,0.0,0.333,-0.333,1.02455,0,1.0,0.0,0.2,0.0,0.0,1.0,0,100.0,299.0,2.0,1,1.0,0,1.0,0,1.0,0,1.0,0,1.0
602,'1',0.0,0.0,7.32,-7.32,1.01091,0,20.0,0.0,0.2,0.0,0.0,1.0,0,100.0,21.053,5.0,1,1.0,0,1.0,0,1.0,0,1.0,0,1.0
611,'1',0.0,0.0,9.516,-9.516,1.02727,0,26.0,0.0,0.2,0.0,0.0,1.0,0,100.0,27.368,2.0,1,1.0,0,1.0,0,1.0,0,1.0,0,1.0
619,'1',0.0,0.0,0.333,-0.333,1.02455,0,1.0,0.0,0.2,0.0,0.0,1.0,0,100.0,252.0,2.0,1,1.0,0,1.0,0,1.0,0,1.0,0,1.0
620,'1',0.0,0.0,94.428,-94.428,1.02455,0,2.0,0.0,0.2,0.0,0.0,1.0,0,100.0,271.579,2.0,1,1.0,0,1.0,0,1.0,0,1.0,0,1.0
623,'99',5.802,-2.781,33.333,-33.333,1.03915,0,100.0,0.0,1.0,0.0,0.0,1.0,0,100.0,259.0,5.802,1,1.0,0,1.0,0,1.0,0,1.0,0,1.0
625,'1',0.0,0.0,18.3,-18.3,1.02727,0,50.0,0.0,0.2,0.0,0.0,1.0,0,100.0,52.632,2.0,1,1.0,0,1.0,0,1.0,0,1.0,0,1.0
630,'1',277.0,13.971,101.382,-101.382,1.02478,0,108.13,0.0,0.18,0.0,0.0,1.0,1,100.0,291.579,2.0,1,1.0,0,1.0,0,1.0,0,1.0,0,1.0
633,'99',20.393,-67.786,160.0,-160.0,1.01,0,100.0,0.0,1.0,0.0,0.0,1.0,1,100.0,145.216,10.951,1,1.0,0,1.0,0,1.0,0,1.0,0,1.0
634,'99',28.758,-133.228,160.0,-160.0,1.01,0,100.0,0.0,1.0,0.0,0.0,1.0,1,100.0,296.567,15.443,1,1.0,0,1.0,0,1.0,0,1.0,0,1.0
639,'99',70.248,-62.713,33.333,-33.333,1.01,0,100.0,0.0,1.0,0.0,0.0,1.0,0,100.0,85.248,70.248,1,1.0,0,1.0,0,1.0,0,1.0,0,1.0
640,'99',206.788,-70.638,33.333,-33.333,1.01,0,100.0,0.0,1.0,0.0,0.0,1.0,0,100.0,221.788,206.788,1,1.0,0,1.0,0,1.0,0,1.0,0,1.0
645,'1',100.483,-21.311,92.855,-62.0,1.01125,0,216.55,0.0,0.18,0.0,0.0,1.0,1,100.0,267.056,98.483,1,1.0,0,1.0,0,1.0,0,1.0,0,1.0
645,'2',0.0,0.0,92.855,-62.0,1.01125,0,179.0,0.0,0.18,0.0,0.0,1.0,0,100.0,267.056,98.483,1,1.0,0,1.0,0,1.0,0,1.0,0,1.0
645,'3',253.703,-53.807,92.855,-75.0,1.01125,0,179.0,0.0,0.18,0.0,0.0,1.0,1,100.0,267.056,98.483,1,1.0,0,1.0,0,1.0,0,1.0,0,1.0
646,'1',0.0,0.0,65.514,-65.514,1.01125,0,179.0,0.0,0.18,0.0,0.0,1.0,0,100.0,188.421,2.0,1,1.0,0,1.0,0,1.0,0,1.0,0,1.0
648,'98',3.0,-3.012,183.0,-183.0,1.02143,0,100.0,0.0,0.1,0.0,0.0,1.0,1,100.0,526.316,2.0,1,1.0,0,1.0,0,1.0,0,1.0,0,1.0
649,'1',0.0,0.0,20.13,-20.13,1.01909,0,58.99,0.0,0.2,0.0,0.0,1.0,0,100.0,57.895,26.0,1,1.0,0,1.0,0,1.0,0,1.0,0,1.0
650,'1',0.0,0.0,18.333,-18.333,1.01909,0,55.0,0.0,0.2,0.0,0.0,1.0,0,100.0,55.0,26.0,1,1.0,0,1.0,0,1.0,0,1.0,0,1.0
652,'1',0.0,0.0,98.82,-98.82,1.02182,0,0.36,0.0,0.2,0.0,0.0,1.0,0,100.0,284.211,2.0,1,1.0,0,1.0,0,1.0,0,1.0,0,1.0
652,'98',3.0,0.922,183.0,-183.0,1.02182,0,100.0,0.0,0.1,0.0,0.0,1.0,1,100.0,526.316,2.0,1,1.0,0,1.0,0,1.0,0,1.0,0,1.0
659,'1',0.0,0.0,6.588,-6.588,1.02182,0,18.0,0.0,0.2,0.0,0.0,1.0,0,100.0,18.947,2.0,1,1.0,0,1.0,0,1.0,0,1.0,0,1.0
660,'1',0.0,0.0,8.052,-8.052,1.02455,0,22.0,0.0,0.2,0.0,0.0,1.0,0,100.0,23.158,2.0,1,1.0,0,1.0,0,1.0,0,1.0,0,1.0
667,'1',0.0,0.0,108.702,-108.702,1.02182,0,0.24,0.0,0.2,0.0,0.0,1.0,0,100.0,312.632,2.0,1,1.0,0,1.0,0,1.0,0,1.0,0,1.0
667,'98',3.0,13.695,183.0,-183.0,1.02182,0,100.0,0.0,0.1,0.0,0.0,1.0,1,100.0,526.316,2.0,1,1.0,0,1.0,0,1.0,0,1.0,0,1.0
674,'1',4.0,13.926,100.284,-100.284,1.02455,0,2.0,0.0,0.2,0.0,0.0,1.0,1,100.0,288.421,2.0,1,1.0,0,1.0,0,1.0,0,1.0,0,1.0
675,'1',15.0,-5.49,5.49,-5.49,1.02182,0,15.0,0.0,0.2,0.0,0.0,1.0,1,100.0,15.789,2.0,1,1.0,0,1.0,0,1.0,0,1.0,0,1.0
679,'1',0.0,0.0,93.33,-93.33,1.02182,0,1.0,0.0,0.2,0.0,0.0,1.0,0,100.0,268.421,2.0,1,1.0,0,1.0,0,1.0,0,1.0,0,1.0
684,'1',295.0,-4.16,107.97,-107.97,1.02455,0,0.12,0.0,0.2,0.0,0.0,1.0,1,100.0,310.526,2.0,1,1.0,0,1.0,0,1.0,0,1.0,0,1.0
684,'99',19.44,0.064,33.333,-33.333,1.02455,0,100.0,0.0,1.0,0.0,0.0,1.0,0,100.0,34.44,19.44,1,1.0,0,1.0,0,1.0,0,1.0,0,1.0
688,'1',268.0,-69.8,98.088,-98.088,1.02182,0,9.0,0.0,0.2,0.0,0.0,1.0,1,100.0,282.105,2.0,1,1.0,0,1.0,0,1.0,0,1.0,0,1.0
690,'1',0.0,0.0,106.506,-106.506,1.02182,0,0.24,0.0,0.2,0.0,0.0,1.0,0,100.0,306.316,2.0,1,1.0,0,1.0,0,1.0,0,1.0,0,1.0
690,'98',3.0,1.549,183.0,-183.0,1.02182,0,100.0,0.0,0.1,0.0,0.0,1.0,1,100.0,526.316,2.0,1,1.0,0,1.0,0,1.0,0,1.0,0,1.0
693,'98',3.0,74.544,183.0,-183.0,1.02438,0,100.0,0.0,0.1,0.0,0.0,1.0,1,100.0,526.316,2.0,1,1.0,0,1.0,0,1.0,0,1.0,0,1.0
696,'99',13.122,-1.996,33.333,-33.333,1.02419,0,100.0,0.0,1.0,0.0,0.0,1.0,0,100.0,28.122,13.122,1,1.0,0,1.0,0,1.0,0,1.0,0,1.0
697,'99',4.417,-38.823,33.333,-33.333,1.01937,0,100.0,0.0,1.0,0.0,0.0,1.0,0,100.0,257.0,4.417,1,1.0,0,1.0,0,1.0,0,1.0,0,1.0
698,'1',0.0,0.0,52.613,-1.0,1.02455,0,148.19,0.0,0.18,0.0,0.0,1.0,0,100.0,151.316,70.0,1,1.0,0,1.0,0,1.0,0,1.0,0,1.0
702,'1',0.0,0.0,50.325,-40.0,1.02455,0,147.7,0.0,0.18,0.0,0.0,1.0,0,100.0,144.737,32.0,1,1.0,0,1.0,0,1.0,0,1.0,0,1.0
703,'1',0.0,0.0,37.667,-37.667,1.02455,0,113.0,0.0,0.18,0.0,0.0,1.0,0,100.0,113.0,32.0,1,1.0,0,1.0,0,1.0,0,1.0,0,1.0
706,'1',0.0,0.0,45.0,-45.0,1.02455,0,135.0,0.0,0.18,0.0,0.0,1.0,0,100.0,135.0,35.0,1,1.0,0,1.0,0,1.0,0,1.0,0,1.0
719,'1',0.0,0.0,54.903,-1.25,1.02455,0,144.0,0.0,0.18,0.0,0.0,1.0,0,100.0,157.903,79.0,1,1.0,0,1.0,0,1.0,0,1.0,0,1.0
719,'2',0.0,0.0,36.667,-36.667,1.02455,0,110.0,0.0,0.18,0.0,0.0,1.0,0,100.0,110.0,79.0,1,1.0,0,1.0,0,1.0,0,1.0,0,1.0
...
0 / END OF GENERATOR DATA BEGIN BRANCH DATA
1,60,'1',0.02461,0.07336,0.00802,128.0,128.0,128.0,0.0,0.0,0.0,0.0,1,1,0.0,1,1.0,0,1.0,0,1.0,0,1.0
1,93,'1',0.03244,0.09513,0.01073,128.0,128.0,128.0,0.0,0.0,0.0,0.0,1,2,0.0,1,1.0,0,1.0,0,1.0,0,1.0
2,74,'1',0.00068,0.00368,0.00043,125.0,125.0,125.0,0.0,0.0,0.0,0.0,1,2,0.0,1,1.0,0,1.0,0,1.0,0,1.0
2,549,'TL',0.0001,0.01,0.0,119.81,143.78,143.8,0.0,0.0,0.0,0.0,1,1,0.0,45,1.0,0,1.0,0,1.0,0,1.0
4,43,'1',0.0037,0.01909,0.00247,190.0,190.0,190.0,0.0,0.0,0.0,0.0,1,1,0.0,1,1.0,0,1.0,0,1.0,0,1.0
4,93,'1',0.00349,0.01802,0.00231,190.0,190.0,190.0,0.0,0.0,0.0,0.0,1,2,0.0,1,1.0,0,1.0,0,1.0,0,1.0
7,60,'1',0.01649,0.04916,0.00537,128.0,128.0,128.0,0.0,0.0,0.0,0.0,1,1,0.0,1,1.0,0,1.0,0,1.0,0,1.0
7,73,'1',0.00374,0.01116,0.00122,128.0,128.0,128.0,0.0,0.0,0.0,0.0,1,1,0.0,1,1.0,0,1.0,0,1.0,0,1.0
10,27,'1',0.0125,0.02353,0.00262,74.0,74.0,74.0,0.0,0.0,0.0,0.0,1,2,0.0,1,1.0,0,1.0,0,1.0,0,1.0
11,92,'1',0.00236,0.00669,0.00079,62.0,62.0,62.0,0.0,0.0,0.0,0.0,1,1,0.0,1,1.0,0,1.0,0,1.0,0,1.0
16,93,'1',0.00506,0.01482,0.00168,333.45,384.75,384.8,0.0,0.0,0.0,0.0,1,2,0.0,1,1.0,0,1.0,0,1.0,0,1.0
17,81,'1',0.00892,0.05374,0.01281,249.0,249.0,249.0,0.0,0.0,0.0,0.0,1,1,0.0,1,1.0,0,1.0,0,1.0,0,1.0
17,93,'1',0.0001,0.001,0.0,260.0,312.0,312.0,0.0,0.0,0.0,0.0,1,2,0.0,1,1.0,0,1.0,0,1.0,0,1.0
18,66,'1',2e-05,0.001,0.0,333.0,350.0,350.0,0.0,0.0,0.0,0.0,1,1,0.0,1,1.0,0,1.0,0,1.0,0,1.0
19,31,'1',0.00071,0.00582,0.01221,510.0,510.0,510.0,0.0,0.0,0.0,0.0,1,1,0.0,1,1.0,0,1.0,0,1.0,0,1.0
19,35,'1',7e-05,0.001,0.00171,564.0,612.0,612.0,0.0,0.0,0.0,0.0,1,1,0.0,1,1.0,0,1.0,0,1.0,0,1.0
19,69,'1',0.0001,0.001,0.0,260.0,312.0,312.0,0.0,0.0,0.0,0.0,1,1,0.0,1,1.0,0,1.0,0,1.0,0,1.0
21,57,'1',0.04598,0.09139,0.00983,86.0,86.0,86.0,0.0,0.0,0.0,0.0,1,1,0.0,1,1.0,0,1.0,0,1.0,0,1.0
21,91,'1',0.02947,0.10073,0.01266,86.0,86.0,86.0,0.0,0.0,0.0,0.0,1,1,0.0,1,1.0,0,1.0,0,1.0,0,1.0
22,67,'1',0.01108,0.04402,0.00618,236.27,283.52,283.5,0.0,0.0,0.0,0.0,1,1,0.0,1,1.0,0,1.0,0,1.0,0,1.0
22,73,'1',0.00993,0.03804,0.00535,225.46,270.55,270.6,0.0,0.0,0.0,0.0,1,1,0.0,1,1.0,0,1.0,0,1.0,0,1.0
23,44,'1',0.00266,0.01058,0.0015,276.93,332.32,332.3,0.0,0.0,0.0,0.0,1,2,0.0,1,1.0,0,1.0,0,1.0,0,1.0
23,137,'TL',0.0001,0.01,0.0,152.75,183.3,183.3,0.0,0.0,0.0,0.0,1,1,0.0,49,1.0,0,1.0,0,1.0,0,1.0
23,254,'TL',0.0001,0.01,0.0,300.0,400.0,400.0,0.0,0.0,0.0,0.0,1,1,0.0,48,1.0,0,1.0,0,1.0,0,1.0
24,94,'1',0.00489,0.02021,0.00261,141.0,153.0,153.0,0.0,0.0,0.0,0.0,1,2,0.0,1,1.0,0,1.0,0,1.0,0,1.0
27,72,'1',0.01151,0.02166,0.00241,74.0,74.0,74.0,0.0,0.0,0.0,0.0,1,1,0.0,1,1.0,0,1.0,0,1.0,0,1.0
30,73,'1',0.01736,0.07168,0.00928,165.0,165.0,165.0,0.0,0.0,0.0,0.0,1,2,0.0,1,1.0,0,1.0,0,1.0,0,1.0
30,94,'1',0.01303,0.05385,0.00695,141.0,153.0,153.0,0.0,0.0,0.0,0.0,1,1,0.0,1,1.0,0,1.0,0,1.0,0,1.0
31,38,'1',0.00032,0.00211,0.00427,406.0,432.0,432.0,0.0,0.0,0.0,0.0,1,2,0.0,1,1.0,0,1.0,0,1.0,0,1.0
31,66,'1',0.00151,0.01243,0.02626,497.0,497.0,497.0,0.0,0.0,0.0,0.0,1,1,0.0,1,1.0,0,1.0,0,1.0,0,1.0
31,66,'2',0.00151,0.01236,0.02612,510.0,510.0,510.0,0.0,0.0,0.0,0.0,1,1,0.0,1,1.0,0,1.0,0,1.0,0,1.0
32,50,'1',0.0092,0.02296,0.00287,260.0,312.0,312.0,0.0,0.0,0.0,0.0,1,1,0.0,1,1.0,0,1.0,0,1.0,0,1.0
32,72,'1',0.02022,0.04363,0.00517,74.0,74.0,74.0,0.0,0.0,0.0,0.0,1,2,0.0,1,1.0,0,1.0,0,1.0,0,1.0
33,36,'1',0.0001,0.001,0.0,260.0,312.0,312.0,0.0,0.0,0.0,0.0,1,2,0.0,1,1.0,0,1.0,0,1.0,0,1.0
36,38,'1',0.00062,0.00521,0.01419,633.0,633.0,633.0,0.0,0.0,0.0,0.0,1,2,0.0,1,1.0,0,1.0,0,1.0,0,1.0
36,45,'1',0.0001,0.001,0.0,260.0,312.0,312.0,0.0,0.0,0.0,0.0,1,1,0.0,1,1.0,0,1.0,0,1.0,0,1.0
36,483,'TL',0.0001,0.01,0.0,257.59,297.22,297.2,0.0,0.0,0.0,0.0,1,1,0.0,46,1.0,0,1.0,0,1.0,0,1.0
37,55,'1',0.00249,0.02091,0.043,510.0,510.0,510.0,0.0,0.0,0.0,0.0,1,2,0.0,1,1.0,0,1.0,0,1.0,0,1.0
37,79,'1',0.00037,0.00306,0.00647,510.0,510.0,510.0,0.0,0.0,0.0,0.0,1,2,0.0,1,1.0,0,1.0,0,1.0,0,1.0
40,47,'1',0.00855,0.03356,0.00426,160.0,160.0,160.0,0.0,0.0,0.0,0.0,1,2,0.0,1,1.0,0,1.0,0,1.0,0,1.0
40,93,'1',0.01448,0.0565,0.00724,160.0,160.0,160.0,0.0,0.0,0.0,0.0,1,2,0.0,1,1.0,0,1.0,0,1.0,0,1.0
41,46,'1',0.00572,0.03592,0.12701,617.0,617.0,617.0,0.0,0.0,0.0,0.0,1,2,0.0,1,1.0,0,1.0,0,1.0,0,1.0
41,87,'1',0.0001,0.001,0.0,260.0,312.0,312.0,0.0,0.0,0.0,0.0,1,1,0.0,1,1.0,0,1.0,0,1.0,0,1.0
44,67,'1',0.01683,0.06688,0.0094,264.9,317.88,317.9,0.0,0.0,0.0,0.0,1,1,0.0,1,1.0,0,1.0,0,1.0,0,1.0
46,90,'1',0.00242,0.01482,0.05476,658.0,658.0,658.0,0.0,0.0,0.0,0.0,1,1,0.0,1,1.0,0,1.0,0,1.0,0,1.0
50,74,'1',0.00113,0.00465,0.00061,74.0,74.0,74.0,0.0,0.0,0.0,0.0,1,1,0.0,1,1.0,0,1.0,0,1.0,0,1.0
52,87,'1',0.0001,0.001,0.0,260.0,312.0,312.0,0.0,0.0,0.0,0.0,1,1,0.0,1,1.0,0,1.0,0,1.0,0,1.0
53,62,'1',0.00689,0.01291,0.00144,74.0,74.0,74.0,0.0,0.0,0.0,0.0,1,1,0.0,1,1.0,0,1.0,0,1.0,0,1.0
53,82,'1',0.00037,0.001,0.0,74.0,74.0,74.0,0.0,0.0,0.0,0.0,1,1,0.0,1,1.0,0,1.0,0,1.0,0,1.0
57,85,'1',0.0002,0.001,0.0,86.0,86.0,86.0,0.0,0.0,0.0,0.0,1,2,0.0,1,1.0,0,1.0,0,1.0,0,1.0
58,76,'1',0.02397,0.04498,0.00499,74.0,74.0,74.0,0.0,0.0,0.0,0.0,1,1,0.0,1,1.0,0,1.0,0,1.0,0,1.0
58,91,'1',0.0293,0.08307,0.00997,128.0,128.0,128.0,0.0,0.0,0.0,0.0,1,1,0.0,1,1.0,0,1.0,0,1.0,0,1.0
58,92,'1',0.03256,0.0924,0.01108,59.0,59.0,59.0,0.0,0.0,0.0,0.0,1,1,0.0,1,1.0,0,1.0,0,1.0,0,1.0
58,499,'TL',0.0001,0.01,0.0,139.18,167.01,167.0,0.0,0.0,0.0,0.0,1,1,0.0,47,1.0,0,1.0,0,1.0,0,1.0
62,76,'1',0.00523,0.00981,0.00108,74.0,74.0,74.0,0.0,0.0,0.0,0.0,1,1,0.0,1,1.0,0,1.0,0,1.0,0,1.0
63,90,'1',0.00075,0.00528,0.02325,331.0,331.0,331.0,0.0,0.0,0.0,0.0,1,1,0.0,1,1.0,0,1.0,0,1.0,0,1.0
68,83,'1',0.01058,0.02193,0.00216,86.0,86.0,86.0,0.0,0.0,0.0,0.0,1,2,0.0,1,1.0,0,1.0,0,1.0,0,1.0
68,84,'1',0.0059,0.01222,0.00121,86.0,86.0,86.0,0.0,0.0,0.0,0.0,1,1,0.0,1,1.0,0,1.0,0,1.0,0,1.0
69,86,'1',0.00519,0.04108,0.09283,510.0,510.0,510.0,0.0,0.0,0.0,0.0,1,1,0.0,1,1.0,0,1.0,0,1.0,0,1.0
71,93,'1',0.03778,0.11512,0.0141,128.0,128.0,128.0,0.0,0.0,0.0,0.0,1,2,0.0,1,1.0,0,1.0,0,1.0,0,1.0
79,87,'1',0.00493,0.0412,0.0844,510.0,510.0,510.0,0.0,0.0,0.0,0.0,1,2,0.0,1,1.0,0,1.0,0,1.0,0,1.0
81,494,'TL',0.0001,0.01,0.0,235.85,272.14,272.1,0.0,0.0,0.0,0.0,1,1,0.0,44,1.0,0,1.0,0,1.0,0,1.0
83,91,'1',0.0039,0.01106,0.00133,86.0,86.0,86.0,0.0,0.0,0.0,0.0,1,1,0.0,1,1.0,0,1.0,0,1.0,0,1.0
95,96,'1',2e-05,0.00021,0.0,876.0,876.0,876.0,0.0,0.0,0.0,0.0,1,2,0.0,1,1.0,0,1.0,0,1.0,0,1.0
95,99,'1',0.00171,0.00961,0.01424,250.0,250.0,250.0,0.0,0.0,0.0,0.0,1,2,0.0,1,1.0,0,1.0,0,1.0,0,1.0
96,748,'TL',0.0001,0.01,0.0,121.81,146.17,146.2,0.0,0.0,0.0,0.0,1,1,0.0,4,1.0,0,1.0,0,1.0,0,1.0
97,98,'1',2e-05,0.00021,0.0,876.0,876.0,876.0,0.0,0.0,0.0,0.0,1,2,0.0,1,1.0,0,1.0,0,1.0,0,1.0
97,100,'1',0.00194,0.01415,0.0223,341.0,341.0,341.0,0.0,0.0,0.0,0.0,1,2,0.0,1,1.0,0,1.0,0,1.0,0,1.0
97,697,'TL',0.0001,0.01,0.0,83.7,98.6,98.6,0.0,0.0,0.0,0.0,1,1,0.0,8,1.0,0,1.0,0,1.0,0,1.0
98,749,'TL',0.0001,0.01,0.0,122.55,141.4,141.4,0.0,0.0,0.0,0.0,1,2,0.0,6,1.0,0,1.0,0,1.0,0,1.0
99,100,'1',2e-05,0.00021,0.0,876.0,876.0,876.0,0.0,0.0,0.0,0.0,1,2,0.0,1,1.0,0,1.0,0,1.0,0,1.0
99,102,'1',0.00537,0.04039,0.06005,319.0,319.0,319.0,0.0,0.0,0.0,0.0,1,1,0.0,1,1.0,0,1.0,0,1.0,0,1.0
100,698,'TL',0.0001,0.01,0.0,187.88,216.79,216.8,0.0,0.0,0.0,0.0,1,2,0.0,11,1.0,0,1.0,0,1.0,0,1.0
101,102,'1',0.00066,0.00496,0.00758,319.0,319.0,319.0,0.0,0.0,0.0,0.0,1,2,0.0,1,1.0,0,1.0,0,1.0,0,1.0
101,696,'TL',0.0001,0.01,0.0,125.8,150.96,151.0,0.0,0.0,0.0,0.0,1,1,0.0,9,1.0,0,1.0,0,1.0,0,1.0
102,747,'TL',0.0001,0.01,0.0,258.73,298.54,298.5,0.0,0.0,0.0,0.0,1,1,0.0,5,1.0,0,1.0,0,1.0,0,1.0
103,152,'1',0.01248,0.04595,0.00524,75.0,75.0,75.0,0.0,0.0,0.0,0.0,1,2,0.0,1,1.0,0,1.0,0,1.0,0,1.0
104,105,'1',8e-05,0.00083,0.0,634.11,731.66,731.7,0.0,0.0,0.0,0.0,1,2,0.0,1,1.0,0,1.0,0,1.0,0,1.0
104,170,'1',0.00364,0.01149,0.00123,644.69,743.87,743.9,0.0,0.0,0.0,0.0,1,2,0.0,1,1.0,0,1.0,0,1.0,0,1.0
105,180,'1',0.00653,0.02058,0.00222,628.23,724.88,724.9,0.0,0.0,0.0,0.0,1,2,0.0,1,1.0,0,1.0,0,1.0,0,1.0
106,107,'1',8e-05,0.00083,0.0,438.0,438.0,438.0,0.0,0.0,0.0,0.0,1,2,0.0,1,1.0,0,1.0,0,1.0,0,1.0
106,140,'1',0.00488,0.01231,0.00189,74.62,97.01,97.0,0.0,0.0,0.0,0.0,1,2,0.0,1,1.0,0,1.0,0,1.0,0,1.0
107,203,'1',0.00074,0.00223,0.0003,62.0,62.0,62.0,0.0,0.0,0.0,0.0,1,1,0.0,1,1.0,0,1.0,0,1.0,0,1.0
108,170,'1',0.00157,0.00463,0.00057,653.46,753.99,754.0,0.0,0.0,0.0,0.0,1,1,0.0,1,1.0,0,1.0,0,1.0,0,1.0
108,684,'TL',0.0001,0.01,0.0,667.77,770.51,770.5,0.0,0.0,0.0,0.0,1,1,0.0,24,1.0,0,1.0,0,1.0,0,1.0
109,144,'1',0.00041,0.00124,0.00013,75.0,75.0,75.0,0.0,0.0,0.0,0.0,1,1,0.0,1,1.0,0,1.0,0,1.0,0,1.0
110,111,'1',8e-05,0.00083,0.0,438.0,438.0,438.0,0.0,0.0,0.0,0.0,1,2,0.0,1,1.0,0,1.0,0,1.0,0,1.0
110,140,'1',0.00455,0.01289,0.00174,62.0,62.0,62.0,0.0,0.0,0.0,0.0,1,2,0.0,1,1.0,0,1.0,0,1.0,0,1.0
111,207,'1',0.00603,0.01711,0.00231,62.0,62.0,62.0,0.0,0.0,0.0,0.0,1,2,0.0,1,1.0,0,1.0,0,1.0,0,1.0
112,113,'1',8e-05,0.00083,0.0,438.0,438.0,438.0,0.0,0.0,0.0,0.0,1,2,0.0,1,1.0,0,1.0,0,1.0,0,1.0
112,114,'1',0.0005,0.00149,0.0096,98.0,98.0,98.0,0.0,0.0,0.0,0.0,1,1,0.0,1,1.0,0,1.0,0,1.0,0,1.0
114,131,'1',8e-05,0.00066,7e-05,132.0,152.31,152.3,0.0,0.0,0.0,0.0,1,2,0.0,1,1.0,0,1.0,0,1.0,0,1.0
114,190,'1',0.00207,0.01413,0.00162,154.01,177.7,177.7,0.0,0.0,0.0,0.0,1,1,0.0,1,1.0,0,1.0,0,1.0,0,1.0
115,126,'1',0.00339,0.01116,0.00113,75.0,75.0,75.0,0.0,0.0,0.0,0.0,1,1,0.0,1,1.0,0,1.0,0,1.0,0,1.0
115,150,'1',0.00132,0.00231,0.00023,47.0,47.0,47.0,0.0,0.0,0.0,0.0,1,2,0.0,1,1.0,0,1.0,0,1.0,0,1.0
115,175,'1',0.00636,0.0205,0.00213,75.0,75.0,75.0,0.0,0.0,0.0,0.0,1,2,0.0,1,1.0,0,1.0,0,1.0,0,1.0
115,178,'1',0.00264,0.00818,0.00094,75.0,75.0,75.0,0.0,0.0,0.0,0.0,1,1,0.0,1,1.0,0,1.0,0,1.0,0,1.0
115,192,'1',0.0081,0.02298,0.00239,63.0,63.0,63.0,0.0,0.0,0.0,0.0,1,1,0.0,1,1.0,0,1.0,0,1.0,0,1.0
116,117,'1',8e-05,0.00083,0.0,438.0,438.0,438.0,0.0,0.0,0.0,0.0,1,2,0.0,1,1.0,0,1.0,0,1.0,0,1.0
116,132,'1',0.00174,0.00496,0.00065,57.0,57.0,57.0,0.0,0.0,0.0,0.0,1,2,0.0,1,1.0,0,1.0,0,1.0,0,1.0
116,153,'1',0.00455,0.01405,0.0016,75.0,75.0,75.0,0.0,0.0,0.0,0.0,1,2,0.0,1,1.0,0,1.0,0,1.0,0,1.0
116,186,'1',0.00504,0.01562,0.00173,75.0,75.0,75.0,0.0,0.0,0.0,0.0,1,2,0.0,1,1.0,0,1.0,0,1.0,0,1.0
116,195,'1',0.00711,0.02322,0.00234,302.57,349.12,349.1,0.0,0.0,0.0,0.0,1,1,0.0,1,1.0,0,1.0,0,1.0,0,1.0
117,145,'1',0.00496,0.01628,0.00164,123.52,148.23,148.2,0.0,0.0,0.0,0.0,1,1,0.0,1,1.0,0,1.0,0,1.0,0,1.0
117,168,'1',0.00496,0.01496,0.00179,172.26,198.76,198.8,0.0,0.0,0.0,0.0,1,2,0.0,1,1.0,0,1.0,0,1.0,0,1.0
117,187,'1',0.00504,0.01562,0.00173,75.0,75.0,75.0,0.0,0.0,0.0,0.0,1,2,0.0,1,1.0,0,1.0,0,1.0,0,1.0
118,119,'1',0.00124,0.00421,0.00059,70.0,70.0,70.0,0.0,0.0,0.0,0.0,1,2,0.0,1,1.0,0,1.0,0,1.0,0,1.0
119,122,'1',0.00413,0.01587,0.00183,91.74,105.86,105.9,0.0,0.0,0.0,0.0,1,1,0.0,1,1.0,0,1.0,0,1.0,0,1.0
119,152,'1',0.00488,0.01678,0.00193,100.5,115.96,116.0,0.0,0.0,0.0,0.0,1,2,0.0,1,1.0,0,1.0,0,1.0,0,1.0
120,144,'1',0.00355,0.01149,0.00116,75.0,75.0,75.0,0.0,0.0,0.0,0.0,1,2,0.0,1,1.0,0,1.0,0,1.0,0,1.0
120,199,'1',0.00182,0.00587,0.00587,114.0,114.0,114.0,0.0,0.0,0.0,0.0,1,2,0.0,1,1.0,0,1.0,0,1.0,0,1.0
121,122,'1',8e-05,0.00083,0.0,438.0,438.0,438.0,0.0,0.0,0.0,0.0,1,2,0.0,1,1.0,0,1.0,0,1.0,0,1.0
121,124,'1',0.00066,0.00207,0.00021,75.0,75.0,75.0,0.0,0.0,0.0,0.0,1,2,0.0,1,1.0,0,1.0,0,1.0,0,1.0
121,136,'1',0.00066,0.0024,0.00031,80.0,80.0,80.0,0.0,0.0,0.0,0.0,1,2,0.0,1,1.0,0,1.0,0,1.0,0,1.0
121,144,'1',0.00314,0.01355,0.00135,80.0,80.0,80.0,0.0,0.0,0.0,0.0,1,2,0.0,1,1.0,0,1.0,0,1.0,0,1.0
121,162,'1',0.00223,0.00826,0.00099,70.0,70.0,70.0,0.0,0.0,0.0,0.0,1,2,0.0,1,1.0,0,1.0,0,1.0,0,1.0
122,123,'1',0.00066,0.00215,0.00022,75.0,75.0,75.0,0.0,0.0,0.0,0.0,1,2,0.0,1,1.0,0,1.0,0,1.0,0,1.0
122,144,'1',0.00314,0.01355,0.00135,80.0,80.0,80.0,0.0,0.0,0.0,0.0,1,2,0.0,1,1.0,0,1.0,0,1.0,0,1.0
122,197,'1',0.00091,0.00273,0.00033,75.0,75.0,75.0,0.0,0.0,0.0,0.0,1,2,0.0,1,1.0,0,1.0,0,1.0,0,1.0
125,144,'1',0.0014,0.00455,0.00046,75.0,75.0,75.0,0.0,0.0,0.0,0.0,1,2,0.0,1,1.0,0,1.0,0,1.0,0,1.0
127,128,'1',8e-05,0.00083,0.0,438.0,438.0,438.0,0.0,0.0,0.0,0.0,1,2,0.0,1,1.0,0,1.0,0,1.0,0,1.0
127,140,'1',0.00405,0.01331,0.00135,107.11,123.59,123.6,0.0,0.0,0.0,0.0,1,2,0.0,1,1.0,0,1.0,0,1.0,0,1.0
128,182,'1',0.01025,0.02926,0.0039,107.37,123.89,123.9,0.0,0.0,0.0,0.0,1,1,0.0,1,1.0,0,1.0,0,1.0,0,1.0
129,130,'1',0.00231,0.00273,0.00058,39.0,39.0,39.0,0.0,0.0,0.0,0.0,1,2,0.0,1,1.0,0,1.0,0,1.0,0,1.0
130,151,'1',0.00579,0.01785,0.00204,198.93,238.72,238.7,0.0,0.0,0.0,0.0,1,2,0.0,1,1.0,0,1.0,0,1.0,0,1.0
130,174,'1',0.0043,0.01347,0.00147,188.62,226.34,226.3,0.0,0.0,0.0,0.0,1,1,0.0,1,1.0,0,1.0,0,1.0,0,1.0
133,167,'1',0.01198,0.03702,0.00418,156.12,180.13,180.1,0.0,0.0,0.0,0.0,1,1,0.0,1,1.0,0,1.0,0,1.0,0,1.0
133,757,'TL',0.0001,0.01,0.0,151.01,174.25,174.3,0.0,0.0,0.0,0.0,1,2,0.0,7,1.0,0,1.0,0,1.0,0,1.0
135,144,'1',0.00372,0.01207,0.00122,75.0,75.0,75.0,0.0,0.0,0.0,0.0,1,1,0.0,1,1.0,0,1.0,0,1.0,0,1.0
137,174,'1',0.00686,0.02215,0.00232,174.85,209.82,209.8,0.0,0.0,0.0,0.0,1,2,0.0,1,1.0,0,1.0,0,1.0,0,1.0
138,139,'1',0.00033,0.00041,9e-05,39.0,39.0,39.0,0.0,0.0,0.0,0.0,1,1,0.0,1,1.0,0,1.0,0,1.0,0,1.0
139,151,'1',0.0076,0.02355,0.00263,604.64,697.67,697.7,0.0,0.0,0.0,0.0,1,2,0.0,1,1.0,0,1.0,0,1.0,0,1.0
139,179,'1',0.00273,0.00876,0.0009,607.79,701.3,701.3,0.0,0.0,0.0,0.0,1,1,0.0,1,1.0,0,1.0,0,1.0,0,1.0
140,190,'1',0.01694,0.05562,0.0056,95.16,109.8,109.8,0.0,0.0,0.0,0.0,1,2,0.0,1,1.0,0,1.0,0,1.0,0,1.0
141,151,'1',0.03413,0.08545,0.00909,144.77,167.04,167.0,0.0,0.0,0.0,0.0,1,1,0.0,1,1.0,0,1.0,0,1.0,0,1.0
141,158,'1',0.00992,0.01661,0.00395,109.6,126.46,126.5,0.0,0.0,0.0,0.0,1,1,0.0,1,1.0,0,1.0,0,1.0,0,1.0
141,164,'1',0.02496,0.03802,0.00491,39.0,39.0,39.0,0.0,0.0,0.0,0.0,1,1,0.0,1,1.0,0,1.0,0,1.0,0,1.0
...